03/07/2023 00:00:00;L;license;floating license hour:102 day:102 month:102 max:102
03/07/2023 00:00:25;E;124330.ml-hpc-master01;user=grapesli group=users2 project=_pbs_project_default jobname=81_ADULT65_A_11_1 queue=limitq ctime=1678099457 qtime=1678099457 etime=1678099457 start=1678113350 exec_host=ml-hpc-cn14/0*36 exec_vnode=(ml-hpc-cn14:ncpus=36) Resource_List.dynalic=36 Resource_List.higher=1 Resource_List.mpiprocs=36 Resource_List.ncpus=36 Resource_List.nodect=1 Resource_List.place=free Resource_List.select=1:ncpus=36:mpiprocs=36:pas_applications_enabled=Dyna:platform=P8260-48c-512G Resource_List.software=LS-Dyna session=159359 end=1678118425 Exit_status=0 resources_used.cpupercent=3600 resources_used.cput=49:40:15 resources_used.mem=9886920kb resources_used.ncpus=36 resources_used.vmem=26087660kb resources_used.walltime=01:23:45 run_count=1
03/07/2023 00:00:28;S;124428.ml-hpc-master01;user=grapesli group=users2 project=_pbs_project_default jobname=81_ADULT65_A_11_1_h3d queue=limitq ctime=1678118371 qtime=1678118371 etime=1678118425 start=1678118428 exec_host=ml-rtx6000-ser002/1 exec_vnode=(ml-rtx6000-ser002:ncpus=1) Resource_List.higher=1 Resource_List.hwlic=6000 Resource_List.hwlimit=1 Resource_List.mpiprocs=1 Resource_List.ncpus=1 Resource_List.nodect=1 Resource_List.place=free Resource_List.select=1:ncpus=1:mpiprocs=1:pas_applications_enabled=GUI Resource_List.software=Hvtrans resource_assigned.ncpus=1 
03/07/2023 00:00:30;S;124335.ml-hpc-master01;user=grapesli group=users2 project=_pbs_project_default jobname=81_ADULT65_A_11_-3 queue=limitq ctime=1678099463 qtime=1678099463 etime=1678099463 start=1678118430 exec_host=ml-hpc-cn14/0*36 exec_vnode=(ml-hpc-cn14:ncpus=36) Resource_List.dynalic=36 Resource_List.higher=1 Resource_List.mpiprocs=36 Resource_List.ncpus=36 Resource_List.nodect=1 Resource_List.place=free Resource_List.select=1:ncpus=36:mpiprocs=36:pas_applications_enabled=Dyna:platform=P8260-48c-512G Resource_List.software=LS-Dyna resource_assigned.ncpus=36 
03/07/2023 00:00:49;E;124329.ml-hpc-master01;user=grapesli group=users2 project=_pbs_project_default jobname=81_ADULT65_A_11_0 queue=limitq ctime=1678099455 qtime=1678099455 etime=1678099455 start=1678113036 exec_host=ml-hpc-cn16/0*36 exec_vnode=(ml-hpc-cn16:ncpus=36) Resource_List.dynalic=36 Resource_List.higher=1 Resource_List.mpiprocs=36 Resource_List.ncpus=36 Resource_List.nodect=1 Resource_List.place=free Resource_List.select=1:ncpus=36:mpiprocs=36:pas_applications_enabled=Dyna:platform=P8260-48c-512G Resource_List.software=LS-Dyna session=78006 end=1678118449 Exit_status=0 resources_used.cpupercent=3600 resources_used.cput=52:59:17 resources_used.mem=9828956kb resources_used.ncpus=36 resources_used.vmem=26006220kb resources_used.walltime=01:29:26 run_count=1
03/07/2023 00:00:52;S;124429.ml-hpc-master01;user=grapesli group=users2 project=_pbs_project_default jobname=81_ADULT65_A_11_0_h3d queue=limitq ctime=1678118397 qtime=1678118397 etime=1678118449 start=1678118452 exec_host=ml-rtx6000-ser002/3 exec_vnode=(ml-rtx6000-ser002:ncpus=1) Resource_List.higher=1 Resource_List.hwlic=6000 Resource_List.hwlimit=1 Resource_List.mpiprocs=1 Resource_List.ncpus=1 Resource_List.nodect=1 Resource_List.place=free Resource_List.select=1:ncpus=1:mpiprocs=1:pas_applications_enabled=GUI Resource_List.software=Hvtrans resource_assigned.ncpus=1 
03/07/2023 00:00:54;S;124336.ml-hpc-master01;user=grapesli group=users2 project=_pbs_project_default jobname=81_ADULT65_A_11_4 queue=limitq ctime=1678099464 qtime=1678099464 etime=1678099464 start=1678118454 exec_host=ml-hpc-cn16/0*36 exec_vnode=(ml-hpc-cn16:ncpus=36) Resource_List.dynalic=36 Resource_List.higher=1 Resource_List.mpiprocs=36 Resource_List.ncpus=36 Resource_List.nodect=1 Resource_List.place=free Resource_List.select=1:ncpus=36:mpiprocs=36:pas_applications_enabled=Dyna:platform=P8260-48c-512G Resource_List.software=LS-Dyna resource_assigned.ncpus=36 
03/07/2023 00:04:29;E;124428.ml-hpc-master01;user=grapesli group=users2 project=_pbs_project_default jobname=81_ADULT65_A_11_1_h3d queue=limitq ctime=1678118371 qtime=1678118371 etime=1678118425 start=1678118428 exec_host=ml-rtx6000-ser002/1 exec_vnode=(ml-rtx6000-ser002:ncpus=1) Resource_List.higher=1 Resource_List.hwlic=6000 Resource_List.hwlimit=1 Resource_List.mpiprocs=1 Resource_List.ncpus=1 Resource_List.nodect=1 Resource_List.place=free Resource_List.select=1:ncpus=1:mpiprocs=1:pas_applications_enabled=GUI Resource_List.software=Hvtrans session=226209 end=1678118669 Exit_status=0 resources_used.cpupercent=124 resources_used.cput=00:03:40 resources_used.mem=293084kb resources_used.ncpus=1 resources_used.vmem=1138320kb resources_used.walltime=00:02:26 run_count=1
03/07/2023 00:04:52;E;124429.ml-hpc-master01;user=grapesli group=users2 project=_pbs_project_default jobname=81_ADULT65_A_11_0_h3d queue=limitq ctime=1678118397 qtime=1678118397 etime=1678118449 start=1678118452 exec_host=ml-rtx6000-ser002/3 exec_vnode=(ml-rtx6000-ser002:ncpus=1) Resource_List.higher=1 Resource_List.hwlic=6000 Resource_List.hwlimit=1 Resource_List.mpiprocs=1 Resource_List.ncpus=1 Resource_List.nodect=1 Resource_List.place=free Resource_List.select=1:ncpus=1:mpiprocs=1:pas_applications_enabled=GUI Resource_List.software=Hvtrans session=228048 end=1678118692 Exit_status=0 resources_used.cpupercent=120 resources_used.cput=00:03:16 resources_used.mem=341944kb resources_used.ncpus=1 resources_used.vmem=1210788kb resources_used.walltime=00:02:25 run_count=1
03/07/2023 00:10:03;Q;124430.ml-hpc-master01;user=grapesli group=users2 project=_pbs_project_default jobname=81_ADULT65_A_11_-1_h3d queue=routeq ctime=1678119003 qtime=1678119003 etime=0 depend=afterany:124331.ml-hpc-master01@ml-hpc-master01 Resource_List.higher=1 Resource_List.hwlic=6000 Resource_List.hwlimit=1 Resource_List.mpiprocs=1 Resource_List.ncpus=1 Resource_List.nodect=1 Resource_List.place=free Resource_List.select=1:ncpus=1:mpiprocs=1:pas_applications_enabled=GUI Resource_List.software=Hvtrans 
03/07/2023 00:10:03;Q;124430.ml-hpc-master01;user=grapesli group=users2 project=_pbs_project_default jobname=81_ADULT65_A_11_-1_h3d queue=limitq ctime=1678119003 qtime=1678119003 etime=0 depend=afterany:124331.ml-hpc-master01@ml-hpc-master01 Resource_List.higher=1 Resource_List.hwlic=6000 Resource_List.hwlimit=1 Resource_List.mpiprocs=1 Resource_List.ncpus=1 Resource_List.nodect=1 Resource_List.place=free Resource_List.select=1:ncpus=1:mpiprocs=1:pas_applications_enabled=GUI Resource_List.software=Hvtrans 
03/07/2023 00:10:51;E;124331.ml-hpc-master01;user=grapesli group=users2 project=_pbs_project_default jobname=81_ADULT65_A_11_-1 queue=limitq ctime=1678099459 qtime=1678099459 etime=1678099459 start=1678113835 exec_host=ml-hpc-cn17/0*36 exec_vnode=(ml-hpc-cn17:ncpus=36) Resource_List.dynalic=36 Resource_List.higher=1 Resource_List.mpiprocs=36 Resource_List.ncpus=36 Resource_List.nodect=1 Resource_List.place=free Resource_List.select=1:ncpus=36:mpiprocs=36:pas_applications_enabled=Dyna:platform=P8260-48c-512G Resource_List.software=LS-Dyna session=115829 end=1678119051 Exit_status=0 resources_used.cpupercent=3600 resources_used.cput=51:13:53 resources_used.mem=9837156kb resources_used.ncpus=36 resources_used.vmem=26023968kb resources_used.walltime=01:26:12 run_count=1
03/07/2023 00:10:54;S;124430.ml-hpc-master01;user=grapesli group=users2 project=_pbs_project_default jobname=81_ADULT65_A_11_-1_h3d queue=limitq ctime=1678119003 qtime=1678119003 etime=1678119051 start=1678119054 exec_host=ml-rtx6000-ser002/1 exec_vnode=(ml-rtx6000-ser002:ncpus=1) Resource_List.higher=1 Resource_List.hwlic=6000 Resource_List.hwlimit=1 Resource_List.mpiprocs=1 Resource_List.ncpus=1 Resource_List.nodect=1 Resource_List.place=free Resource_List.select=1:ncpus=1:mpiprocs=1:pas_applications_enabled=GUI Resource_List.software=Hvtrans resource_assigned.ncpus=1 
03/07/2023 00:10:56;S;124337.ml-hpc-master01;user=grapesli group=users2 project=_pbs_project_default jobname=81_ADULT65_A_11_-4 queue=limitq ctime=1678099464 qtime=1678099464 etime=1678099464 start=1678119056 exec_host=ml-hpc-cn17/0*36 exec_vnode=(ml-hpc-cn17:ncpus=36) Resource_List.dynalic=36 Resource_List.higher=1 Resource_List.mpiprocs=36 Resource_List.ncpus=36 Resource_List.nodect=1 Resource_List.place=free Resource_List.select=1:ncpus=36:mpiprocs=36:pas_applications_enabled=Dyna:platform=P8260-48c-512G Resource_List.software=LS-Dyna resource_assigned.ncpus=36 
03/07/2023 00:14:56;E;124430.ml-hpc-master01;user=grapesli group=users2 project=_pbs_project_default jobname=81_ADULT65_A_11_-1_h3d queue=limitq ctime=1678119003 qtime=1678119003 etime=1678119051 start=1678119054 exec_host=ml-rtx6000-ser002/1 exec_vnode=(ml-rtx6000-ser002:ncpus=1) Resource_List.higher=1 Resource_List.hwlic=6000 Resource_List.hwlimit=1 Resource_List.mpiprocs=1 Resource_List.ncpus=1 Resource_List.nodect=1 Resource_List.place=free Resource_List.select=1:ncpus=1:mpiprocs=1:pas_applications_enabled=GUI Resource_List.software=Hvtrans session=29358 end=1678119296 Exit_status=0 resources_used.cpupercent=116 resources_used.cput=00:02:52 resources_used.mem=299104kb resources_used.ncpus=1 resources_used.vmem=1145412kb resources_used.walltime=00:02:26 run_count=1
03/07/2023 00:31:51;Q;124431.ml-hpc-master01;user=grapesli group=users2 project=_pbs_project_default jobname=81_ADULT65_A_11_-2_h3d queue=routeq ctime=1678120311 qtime=1678120311 etime=0 depend=afterany:124333.ml-hpc-master01@ml-hpc-master01 Resource_List.higher=1 Resource_List.hwlic=6000 Resource_List.hwlimit=1 Resource_List.mpiprocs=1 Resource_List.ncpus=1 Resource_List.nodect=1 Resource_List.place=free Resource_List.select=1:ncpus=1:mpiprocs=1:pas_applications_enabled=GUI Resource_List.software=Hvtrans 
03/07/2023 00:31:51;Q;124431.ml-hpc-master01;user=grapesli group=users2 project=_pbs_project_default jobname=81_ADULT65_A_11_-2_h3d queue=limitq ctime=1678120311 qtime=1678120311 etime=0 depend=afterany:124333.ml-hpc-master01@ml-hpc-master01 Resource_List.higher=1 Resource_List.hwlic=6000 Resource_List.hwlimit=1 Resource_List.mpiprocs=1 Resource_List.ncpus=1 Resource_List.nodect=1 Resource_List.place=free Resource_List.select=1:ncpus=1:mpiprocs=1:pas_applications_enabled=GUI Resource_List.software=Hvtrans 
03/07/2023 00:32:10;Q;124432.ml-hpc-master01;user=grapesli group=users2 project=_pbs_project_default jobname=81_ADULT65_A_11_2_h3d queue=routeq ctime=1678120330 qtime=1678120330 etime=0 depend=afterany:124332.ml-hpc-master01@ml-hpc-master01 Resource_List.higher=1 Resource_List.hwlic=6000 Resource_List.hwlimit=1 Resource_List.mpiprocs=1 Resource_List.ncpus=1 Resource_List.nodect=1 Resource_List.place=free Resource_List.select=1:ncpus=1:mpiprocs=1:pas_applications_enabled=GUI Resource_List.software=Hvtrans 
03/07/2023 00:32:10;Q;124432.ml-hpc-master01;user=grapesli group=users2 project=_pbs_project_default jobname=81_ADULT65_A_11_2_h3d queue=limitq ctime=1678120330 qtime=1678120330 etime=0 depend=afterany:124332.ml-hpc-master01@ml-hpc-master01 Resource_List.higher=1 Resource_List.hwlic=6000 Resource_List.hwlimit=1 Resource_List.mpiprocs=1 Resource_List.ncpus=1 Resource_List.nodect=1 Resource_List.place=free Resource_List.select=1:ncpus=1:mpiprocs=1:pas_applications_enabled=GUI Resource_List.software=Hvtrans 
03/07/2023 00:32:42;E;124333.ml-hpc-master01;user=grapesli group=users2 project=_pbs_project_default jobname=81_ADULT65_A_11_-2 queue=limitq ctime=1678099461 qtime=1678099461 etime=1678099461 start=1678115324 exec_host=ml-hpc-cn18/0*36 exec_vnode=(ml-hpc-cn18:ncpus=36) Resource_List.dynalic=36 Resource_List.higher=1 Resource_List.mpiprocs=36 Resource_List.ncpus=36 Resource_List.nodect=1 Resource_List.place=free Resource_List.select=1:ncpus=36:mpiprocs=36:pas_applications_enabled=Dyna:platform=P8260-48c-512G Resource_List.software=LS-Dyna session=202953 end=1678120362 Exit_status=0 resources_used.cpupercent=3600 resources_used.cput=49:28:27 resources_used.mem=9816248kb resources_used.ncpus=36 resources_used.vmem=26003344kb resources_used.walltime=01:23:12 run_count=1
03/07/2023 00:32:49;S;124431.ml-hpc-master01;user=grapesli group=users2 project=_pbs_project_default jobname=81_ADULT65_A_11_-2_h3d queue=limitq ctime=1678120311 qtime=1678120311 etime=1678120362 start=1678120369 exec_host=ml-rtx6000-ser002/1 exec_vnode=(ml-rtx6000-ser002:ncpus=1) Resource_List.higher=1 Resource_List.hwlic=6000 Resource_List.hwlimit=1 Resource_List.mpiprocs=1 Resource_List.ncpus=1 Resource_List.nodect=1 Resource_List.place=free Resource_List.select=1:ncpus=1:mpiprocs=1:pas_applications_enabled=GUI Resource_List.software=Hvtrans resource_assigned.ncpus=1 
03/07/2023 00:32:51;S;124338.ml-hpc-master01;user=grapesli group=users2 project=_pbs_project_default jobname=81_ADULT65_A_11_5 queue=limitq ctime=1678099466 qtime=1678099466 etime=1678099466 start=1678120371 exec_host=ml-hpc-cn18/0*36 exec_vnode=(ml-hpc-cn18:ncpus=36) Resource_List.dynalic=36 Resource_List.higher=1 Resource_List.mpiprocs=36 Resource_List.ncpus=36 Resource_List.nodect=1 Resource_List.place=free Resource_List.select=1:ncpus=36:mpiprocs=36:pas_applications_enabled=Dyna:platform=P8260-48c-512G Resource_List.software=LS-Dyna resource_assigned.ncpus=36 
03/07/2023 00:33:01;E;124332.ml-hpc-master01;user=grapesli group=users2 project=_pbs_project_default jobname=81_ADULT65_A_11_2 queue=limitq ctime=1678099460 qtime=1678099460 etime=1678099460 start=1678115184 exec_host=ml-hpc-cn15/0*36 exec_vnode=(ml-hpc-cn15:ncpus=36) Resource_List.dynalic=36 Resource_List.higher=1 Resource_List.mpiprocs=36 Resource_List.ncpus=36 Resource_List.nodect=1 Resource_List.place=free Resource_List.select=1:ncpus=36:mpiprocs=36:pas_applications_enabled=Dyna:platform=P8260-48c-512G Resource_List.software=LS-Dyna session=152168 end=1678120381 Exit_status=0 resources_used.cpupercent=3600 resources_used.cput=51:05:09 resources_used.mem=9805132kb resources_used.ncpus=36 resources_used.vmem=25975904kb resources_used.walltime=01:25:51 run_count=1
03/07/2023 00:33:05;S;124432.ml-hpc-master01;user=grapesli group=users2 project=_pbs_project_default jobname=81_ADULT65_A_11_2_h3d queue=limitq ctime=1678120330 qtime=1678120330 etime=1678120381 start=1678120385 exec_host=ml-rtx6000-ser002/3 exec_vnode=(ml-rtx6000-ser002:ncpus=1) Resource_List.higher=1 Resource_List.hwlic=6000 Resource_List.hwlimit=1 Resource_List.mpiprocs=1 Resource_List.ncpus=1 Resource_List.nodect=1 Resource_List.place=free Resource_List.select=1:ncpus=1:mpiprocs=1:pas_applications_enabled=GUI Resource_List.software=Hvtrans resource_assigned.ncpus=1 
03/07/2023 00:33:06;S;124339.ml-hpc-master01;user=grapesli group=users2 project=_pbs_project_default jobname=81_ADULT65_A_11_-5 queue=limitq ctime=1678099467 qtime=1678099467 etime=1678099467 start=1678120386 exec_host=ml-hpc-cn15/0*36 exec_vnode=(ml-hpc-cn15:ncpus=36) Resource_List.dynalic=36 Resource_List.higher=1 Resource_List.mpiprocs=36 Resource_List.ncpus=36 Resource_List.nodect=1 Resource_List.place=free Resource_List.select=1:ncpus=36:mpiprocs=36:pas_applications_enabled=Dyna:platform=P8260-48c-512G Resource_List.software=LS-Dyna resource_assigned.ncpus=36 
03/07/2023 00:37:00;E;124431.ml-hpc-master01;user=grapesli group=users2 project=_pbs_project_default jobname=81_ADULT65_A_11_-2_h3d queue=limitq ctime=1678120311 qtime=1678120311 etime=1678120362 start=1678120369 exec_host=ml-rtx6000-ser002/1 exec_vnode=(ml-rtx6000-ser002:ncpus=1) Resource_List.higher=1 Resource_List.hwlic=6000 Resource_List.hwlimit=1 Resource_List.mpiprocs=1 Resource_List.ncpus=1 Resource_List.nodect=1 Resource_List.place=free Resource_List.select=1:ncpus=1:mpiprocs=1:pas_applications_enabled=GUI Resource_List.software=Hvtrans session=95339 end=1678120620 Exit_status=0 resources_used.cpupercent=120 resources_used.cput=00:03:07 resources_used.mem=331620kb resources_used.ncpus=1 resources_used.vmem=1205496kb resources_used.walltime=00:02:35 run_count=1
03/07/2023 00:37:06;E;124432.ml-hpc-master01;user=grapesli group=users2 project=_pbs_project_default jobname=81_ADULT65_A_11_2_h3d queue=limitq ctime=1678120330 qtime=1678120330 etime=1678120381 start=1678120385 exec_host=ml-rtx6000-ser002/3 exec_vnode=(ml-rtx6000-ser002:ncpus=1) Resource_List.higher=1 Resource_List.hwlic=6000 Resource_List.hwlimit=1 Resource_List.mpiprocs=1 Resource_List.ncpus=1 Resource_List.nodect=1 Resource_List.place=free Resource_List.select=1:ncpus=1:mpiprocs=1:pas_applications_enabled=GUI Resource_List.software=Hvtrans session=96392 end=1678120626 Exit_status=0 resources_used.cpupercent=125 resources_used.cput=00:03:51 resources_used.mem=316360kb resources_used.ncpus=1 resources_used.vmem=1160792kb resources_used.walltime=00:02:26 run_count=1
03/07/2023 00:43:10;Q;124433.ml-hpc-master01;user=grapesli group=users2 project=_pbs_project_default jobname=81_ADULT65_A_11_3_h3d queue=routeq ctime=1678120990 qtime=1678120990 etime=0 depend=afterany:124334.ml-hpc-master01@ml-hpc-master01 Resource_List.higher=1 Resource_List.hwlic=6000 Resource_List.hwlimit=1 Resource_List.mpiprocs=1 Resource_List.ncpus=1 Resource_List.nodect=1 Resource_List.place=free Resource_List.select=1:ncpus=1:mpiprocs=1:pas_applications_enabled=GUI Resource_List.software=Hvtrans 
03/07/2023 00:43:10;Q;124433.ml-hpc-master01;user=grapesli group=users2 project=_pbs_project_default jobname=81_ADULT65_A_11_3_h3d queue=limitq ctime=1678120990 qtime=1678120990 etime=0 depend=afterany:124334.ml-hpc-master01@ml-hpc-master01 Resource_List.higher=1 Resource_List.hwlic=6000 Resource_List.hwlimit=1 Resource_List.mpiprocs=1 Resource_List.ncpus=1 Resource_List.nodect=1 Resource_List.place=free Resource_List.select=1:ncpus=1:mpiprocs=1:pas_applications_enabled=GUI Resource_List.software=Hvtrans 
03/07/2023 00:43:33;Q;124434.ml-hpc-master01;user=bilizhi group=users2 project=_pbs_project_default jobname=Mona_TG2_CNCAP_SPRB_103_h3d queue=routeq ctime=1678121013 qtime=1678121013 etime=0 depend=afterany:124242.ml-hpc-master01@ml-hpc-master01 Resource_List.higher=1 Resource_List.hwlic=6000 Resource_List.hwlimit=1 Resource_List.mpiprocs=1 Resource_List.ncpus=1 Resource_List.nodect=1 Resource_List.place=free Resource_List.select=1:ncpus=1:mpiprocs=1:pas_applications_enabled=GUI Resource_List.software=Hvtrans 
03/07/2023 00:43:33;Q;124434.ml-hpc-master01;user=bilizhi group=users2 project=_pbs_project_default jobname=Mona_TG2_CNCAP_SPRB_103_h3d queue=workq ctime=1678121013 qtime=1678121013 etime=0 depend=afterany:124242.ml-hpc-master01@ml-hpc-master01 Resource_List.higher=1 Resource_List.hwlic=6000 Resource_List.hwlimit=1 Resource_List.mpiprocs=1 Resource_List.ncpus=1 Resource_List.nodect=1 Resource_List.place=free Resource_List.select=1:ncpus=1:mpiprocs=1:pas_applications_enabled=GUI Resource_List.software=Hvtrans 
03/07/2023 00:43:59;E;124334.ml-hpc-master01;user=grapesli group=users2 project=_pbs_project_default jobname=81_ADULT65_A_11_3 queue=limitq ctime=1678099462 qtime=1678099462 etime=1678099462 start=1678115849 exec_host=ml-hpc-cn56/0*36 exec_vnode=(ml-hpc-cn56:ncpus=36) Resource_List.dynalic=36 Resource_List.higher=1 Resource_List.mpiprocs=36 Resource_List.ncpus=36 Resource_List.nodect=1 Resource_List.place=free Resource_List.select=1:ncpus=36:mpiprocs=36:pas_applications_enabled=Dyna:platform=P8260-48c-512G Resource_List.software=LS-Dyna session=103866 end=1678121039 Exit_status=0 resources_used.cpupercent=3600 resources_used.cput=51:00:48 resources_used.mem=9798988kb resources_used.ncpus=36 resources_used.vmem=25988592kb resources_used.walltime=01:25:45 run_count=1
03/07/2023 00:44:03;S;124433.ml-hpc-master01;user=grapesli group=users2 project=_pbs_project_default jobname=81_ADULT65_A_11_3_h3d queue=limitq ctime=1678120990 qtime=1678120990 etime=1678121039 start=1678121043 exec_host=ml-rtx6000-ser002/1 exec_vnode=(ml-rtx6000-ser002:ncpus=1) Resource_List.higher=1 Resource_List.hwlic=6000 Resource_List.hwlimit=1 Resource_List.mpiprocs=1 Resource_List.ncpus=1 Resource_List.nodect=1 Resource_List.place=free Resource_List.select=1:ncpus=1:mpiprocs=1:pas_applications_enabled=GUI Resource_List.software=Hvtrans resource_assigned.ncpus=1 
03/07/2023 00:44:05;S;124340.ml-hpc-master01;user=grapesli group=users2 project=_pbs_project_default jobname=81_ADULT65_A_11_6 queue=limitq ctime=1678099470 qtime=1678099470 etime=1678099470 start=1678121045 exec_host=ml-hpc-cn56/0*36 exec_vnode=(ml-hpc-cn56:ncpus=36) Resource_List.dynalic=36 Resource_List.higher=1 Resource_List.mpiprocs=36 Resource_List.ncpus=36 Resource_List.nodect=1 Resource_List.place=free Resource_List.select=1:ncpus=36:mpiprocs=36:pas_applications_enabled=Dyna:platform=P8260-48c-512G Resource_List.software=LS-Dyna resource_assigned.ncpus=36 
03/07/2023 00:48:04;E;124433.ml-hpc-master01;user=grapesli group=users2 project=_pbs_project_default jobname=81_ADULT65_A_11_3_h3d queue=limitq ctime=1678120990 qtime=1678120990 etime=1678121039 start=1678121043 exec_host=ml-rtx6000-ser002/1 exec_vnode=(ml-rtx6000-ser002:ncpus=1) Resource_List.higher=1 Resource_List.hwlic=6000 Resource_List.hwlimit=1 Resource_List.mpiprocs=1 Resource_List.ncpus=1 Resource_List.nodect=1 Resource_List.place=free Resource_List.select=1:ncpus=1:mpiprocs=1:pas_applications_enabled=GUI Resource_List.software=Hvtrans session=129854 end=1678121284 Exit_status=0 resources_used.cpupercent=118 resources_used.cput=00:02:52 resources_used.mem=341148kb resources_used.ncpus=1 resources_used.vmem=1210800kb resources_used.walltime=00:02:24 run_count=1
03/07/2023 01:00:00;L;license;floating license hour:102 day:102 month:102 max:102
03/07/2023 01:01:14;E;124242.ml-hpc-master01;user=bilizhi group=users2 project=_pbs_project_default jobname=Mona_TG2_CNCAP_SPRB_103 queue=workq ctime=1678085754 qtime=1678085754 etime=1678085754 start=1678085759 exec_host=ml-hpc-hfcn12/0*36 exec_vnode=(ml-hpc-hfcn12:ncpus=36) Resource_List.dynalic=36 Resource_List.higher=1 Resource_List.mpiprocs=36 Resource_List.ncpus=36 Resource_List.nodect=1 Resource_List.place=free Resource_List.select=1:ncpus=36:mpiprocs=36:pas_applications_enabled=Dyna:platform=G6254-36c-384G Resource_List.software=LS-Dyna session=64259 end=1678122074 Exit_status=0 resources_used.cpupercent=3590 resources_used.cput=350:07:30 resources_used.mem=20247764kb resources_used.ncpus=36 resources_used.vmem=45080428kb resources_used.walltime=09:47:41 run_count=1
03/07/2023 01:01:22;S;124434.ml-hpc-master01;user=bilizhi group=users2 project=_pbs_project_default jobname=Mona_TG2_CNCAP_SPRB_103_h3d queue=workq ctime=1678121013 qtime=1678121013 etime=1678122074 start=1678122082 exec_host=ml-rtx6000-ser002/1 exec_vnode=(ml-rtx6000-ser002:ncpus=1) Resource_List.higher=1 Resource_List.hwlic=6000 Resource_List.hwlimit=1 Resource_List.mpiprocs=1 Resource_List.ncpus=1 Resource_List.nodect=1 Resource_List.place=free Resource_List.select=1:ncpus=1:mpiprocs=1:pas_applications_enabled=GUI Resource_List.software=Hvtrans resource_assigned.ncpus=1 
03/07/2023 01:02:18;E;123391.ml-hpc-master01;user=zhaozhenzong group=users2 project=_pbs_project_default jobname=mona_xuanran3 queue=workq ctime=1677722118 qtime=1677722118 etime=1677722118 start=1677722232 exec_host=ml-hpc-cn02/0*48+ml-hpc-cn03/0*48+ml-hpc-cn37/0*48 exec_vnode=(ml-hpc-cn02:ncpus=48)+(ml-hpc-cn03:ncpus=48)+(ml-hpc-cn37:ncpus=48) Resource_List.higher=1 Resource_List.mpiprocs=144 Resource_List.ncpus=144 Resource_List.nodect=3 Resource_List.place=scatter Resource_List.select=3:ncpus=48:mpiprocs=48:pas_applications_enabled=Starccm:platform=P8260-48c-512G Resource_List.software=Starccm-AG-gui session=157582 end=1678122138 Exit_status=1 resources_used.cpupercent=4795 resources_used.cput=5035:46:03 resources_used.mem=195976556kb resources_used.ncpus=144 resources_used.vmem=556497880kb resources_used.walltime=110:33:41 run_count=1
03/07/2023 01:12:36;E;124434.ml-hpc-master01;user=bilizhi group=users2 project=_pbs_project_default jobname=Mona_TG2_CNCAP_SPRB_103_h3d queue=workq ctime=1678121013 qtime=1678121013 etime=1678122074 start=1678122082 exec_host=ml-rtx6000-ser002/1 exec_vnode=(ml-rtx6000-ser002:ncpus=1) Resource_List.higher=1 Resource_List.hwlic=6000 Resource_List.hwlimit=1 Resource_List.mpiprocs=1 Resource_List.ncpus=1 Resource_List.nodect=1 Resource_List.place=free Resource_List.select=1:ncpus=1:mpiprocs=1:pas_applications_enabled=GUI Resource_List.software=Hvtrans session=182316 end=1678122756 Exit_status=0 resources_used.cpupercent=148 resources_used.cput=00:12:24 resources_used.mem=664408kb resources_used.ncpus=1 resources_used.vmem=1498932kb resources_used.walltime=00:09:39 run_count=1
03/07/2023 01:23:29;Q;124435.ml-hpc-master01;user=grapesli group=users2 project=_pbs_project_default jobname=81_ADULT65_A_11_-3_h3d queue=routeq ctime=1678123409 qtime=1678123409 etime=0 depend=afterany:124335.ml-hpc-master01@ml-hpc-master01 Resource_List.higher=1 Resource_List.hwlic=6000 Resource_List.hwlimit=1 Resource_List.mpiprocs=1 Resource_List.ncpus=1 Resource_List.nodect=1 Resource_List.place=free Resource_List.select=1:ncpus=1:mpiprocs=1:pas_applications_enabled=GUI Resource_List.software=Hvtrans 
03/07/2023 01:23:29;Q;124435.ml-hpc-master01;user=grapesli group=users2 project=_pbs_project_default jobname=81_ADULT65_A_11_-3_h3d queue=limitq ctime=1678123409 qtime=1678123409 etime=0 depend=afterany:124335.ml-hpc-master01@ml-hpc-master01 Resource_List.higher=1 Resource_List.hwlic=6000 Resource_List.hwlimit=1 Resource_List.mpiprocs=1 Resource_List.ncpus=1 Resource_List.nodect=1 Resource_List.place=free Resource_List.select=1:ncpus=1:mpiprocs=1:pas_applications_enabled=GUI Resource_List.software=Hvtrans 
03/07/2023 01:24:21;E;124335.ml-hpc-master01;user=grapesli group=users2 project=_pbs_project_default jobname=81_ADULT65_A_11_-3 queue=limitq ctime=1678099463 qtime=1678099463 etime=1678099463 start=1678118430 exec_host=ml-hpc-cn14/0*36 exec_vnode=(ml-hpc-cn14:ncpus=36) Resource_List.dynalic=36 Resource_List.higher=1 Resource_List.mpiprocs=36 Resource_List.ncpus=36 Resource_List.nodect=1 Resource_List.place=free Resource_List.select=1:ncpus=36:mpiprocs=36:pas_applications_enabled=Dyna:platform=P8260-48c-512G Resource_List.software=LS-Dyna session=90653 end=1678123461 Exit_status=0 resources_used.cpupercent=3600 resources_used.cput=49:23:48 resources_used.mem=9807688kb resources_used.ncpus=36 resources_used.vmem=25990884kb resources_used.walltime=01:23:03 run_count=1
03/07/2023 01:24:24;S;124435.ml-hpc-master01;user=grapesli group=users2 project=_pbs_project_default jobname=81_ADULT65_A_11_-3_h3d queue=limitq ctime=1678123409 qtime=1678123409 etime=1678123461 start=1678123464 exec_host=ml-rtx6000-ser002/1 exec_vnode=(ml-rtx6000-ser002:ncpus=1) Resource_List.higher=1 Resource_List.hwlic=6000 Resource_List.hwlimit=1 Resource_List.mpiprocs=1 Resource_List.ncpus=1 Resource_List.nodect=1 Resource_List.place=free Resource_List.select=1:ncpus=1:mpiprocs=1:pas_applications_enabled=GUI Resource_List.software=Hvtrans resource_assigned.ncpus=1 
03/07/2023 01:24:26;S;124341.ml-hpc-master01;user=grapesli group=users2 project=_pbs_project_default jobname=81_ADULT65_A_11_-6 queue=limitq ctime=1678099471 qtime=1678099471 etime=1678099471 start=1678123466 exec_host=ml-hpc-cn14/0*36 exec_vnode=(ml-hpc-cn14:ncpus=36) Resource_List.dynalic=36 Resource_List.higher=1 Resource_List.mpiprocs=36 Resource_List.ncpus=36 Resource_List.nodect=1 Resource_List.place=free Resource_List.select=1:ncpus=36:mpiprocs=36:pas_applications_enabled=Dyna:platform=P8260-48c-512G Resource_List.software=LS-Dyna resource_assigned.ncpus=36 
03/07/2023 01:26:37;Q;124436.ml-hpc-master01;user=grapesli group=users2 project=_pbs_project_default jobname=81_ADULT65_A_11_4_h3d queue=routeq ctime=1678123597 qtime=1678123597 etime=0 depend=afterany:124336.ml-hpc-master01@ml-hpc-master01 Resource_List.higher=1 Resource_List.hwlic=6000 Resource_List.hwlimit=1 Resource_List.mpiprocs=1 Resource_List.ncpus=1 Resource_List.nodect=1 Resource_List.place=free Resource_List.select=1:ncpus=1:mpiprocs=1:pas_applications_enabled=GUI Resource_List.software=Hvtrans 
03/07/2023 01:26:37;Q;124436.ml-hpc-master01;user=grapesli group=users2 project=_pbs_project_default jobname=81_ADULT65_A_11_4_h3d queue=limitq ctime=1678123597 qtime=1678123597 etime=0 depend=afterany:124336.ml-hpc-master01@ml-hpc-master01 Resource_List.higher=1 Resource_List.hwlic=6000 Resource_List.hwlimit=1 Resource_List.mpiprocs=1 Resource_List.ncpus=1 Resource_List.nodect=1 Resource_List.place=free Resource_List.select=1:ncpus=1:mpiprocs=1:pas_applications_enabled=GUI Resource_List.software=Hvtrans 
03/07/2023 01:27:27;E;124336.ml-hpc-master01;user=grapesli group=users2 project=_pbs_project_default jobname=81_ADULT65_A_11_4 queue=limitq ctime=1678099464 qtime=1678099464 etime=1678099464 start=1678118454 exec_host=ml-hpc-cn16/0*36 exec_vnode=(ml-hpc-cn16:ncpus=36) Resource_List.dynalic=36 Resource_List.higher=1 Resource_List.mpiprocs=36 Resource_List.ncpus=36 Resource_List.nodect=1 Resource_List.place=free Resource_List.select=1:ncpus=36:mpiprocs=36:pas_applications_enabled=Dyna:platform=P8260-48c-512G Resource_List.software=LS-Dyna session=29954 end=1678123647 Exit_status=0 resources_used.cpupercent=3600 resources_used.cput=51:03:18 resources_used.mem=9780072kb resources_used.ncpus=36 resources_used.vmem=25973984kb resources_used.walltime=01:25:47 run_count=1
03/07/2023 01:27:35;S;124436.ml-hpc-master01;user=grapesli group=users2 project=_pbs_project_default jobname=81_ADULT65_A_11_4_h3d queue=limitq ctime=1678123597 qtime=1678123597 etime=1678123647 start=1678123655 exec_host=ml-rtx6000-ser002/3 exec_vnode=(ml-rtx6000-ser002:ncpus=1) Resource_List.higher=1 Resource_List.hwlic=6000 Resource_List.hwlimit=1 Resource_List.mpiprocs=1 Resource_List.ncpus=1 Resource_List.nodect=1 Resource_List.place=free Resource_List.select=1:ncpus=1:mpiprocs=1:pas_applications_enabled=GUI Resource_List.software=Hvtrans resource_assigned.ncpus=1 
03/07/2023 01:27:37;S;124342.ml-hpc-master01;user=grapesli group=users2 project=_pbs_project_default jobname=81_ADULT65_A_11_7 queue=limitq ctime=1678099473 qtime=1678099473 etime=1678099473 start=1678123657 exec_host=ml-hpc-cn16/0*36 exec_vnode=(ml-hpc-cn16:ncpus=36) Resource_List.dynalic=36 Resource_List.higher=1 Resource_List.mpiprocs=36 Resource_List.ncpus=36 Resource_List.nodect=1 Resource_List.place=free Resource_List.select=1:ncpus=36:mpiprocs=36:pas_applications_enabled=Dyna:platform=P8260-48c-512G Resource_List.software=LS-Dyna resource_assigned.ncpus=36 
03/07/2023 01:28:47;E;124435.ml-hpc-master01;user=grapesli group=users2 project=_pbs_project_default jobname=81_ADULT65_A_11_-3_h3d queue=limitq ctime=1678123409 qtime=1678123409 etime=1678123461 start=1678123464 exec_host=ml-rtx6000-ser002/1 exec_vnode=(ml-rtx6000-ser002:ncpus=1) Resource_List.higher=1 Resource_List.hwlic=6000 Resource_List.hwlimit=1 Resource_List.mpiprocs=1 Resource_List.ncpus=1 Resource_List.nodect=1 Resource_List.place=free Resource_List.select=1:ncpus=1:mpiprocs=1:pas_applications_enabled=GUI Resource_List.software=Hvtrans session=23101 end=1678123727 Exit_status=0 resources_used.cpupercent=126 resources_used.cput=00:03:55 resources_used.mem=341784kb resources_used.ncpus=1 resources_used.vmem=1187916kb resources_used.walltime=00:02:47 run_count=1
03/07/2023 01:34:19;Q;124437.ml-hpc-master01;user=grapesli group=users2 project=_pbs_project_default jobname=81_ADULT65_A_11_-4_h3d queue=routeq ctime=1678124059 qtime=1678124059 etime=0 depend=afterany:124337.ml-hpc-master01@ml-hpc-master01 Resource_List.higher=1 Resource_List.hwlic=6000 Resource_List.hwlimit=1 Resource_List.mpiprocs=1 Resource_List.ncpus=1 Resource_List.nodect=1 Resource_List.place=free Resource_List.select=1:ncpus=1:mpiprocs=1:pas_applications_enabled=GUI Resource_List.software=Hvtrans 
03/07/2023 01:34:19;Q;124437.ml-hpc-master01;user=grapesli group=users2 project=_pbs_project_default jobname=81_ADULT65_A_11_-4_h3d queue=limitq ctime=1678124059 qtime=1678124059 etime=0 depend=afterany:124337.ml-hpc-master01@ml-hpc-master01 Resource_List.higher=1 Resource_List.hwlic=6000 Resource_List.hwlimit=1 Resource_List.mpiprocs=1 Resource_List.ncpus=1 Resource_List.nodect=1 Resource_List.place=free Resource_List.select=1:ncpus=1:mpiprocs=1:pas_applications_enabled=GUI Resource_List.software=Hvtrans 
03/07/2023 01:34:31;E;124436.ml-hpc-master01;user=grapesli group=users2 project=_pbs_project_default jobname=81_ADULT65_A_11_4_h3d queue=limitq ctime=1678123597 qtime=1678123597 etime=1678123647 start=1678123655 exec_host=ml-rtx6000-ser002/3 exec_vnode=(ml-rtx6000-ser002:ncpus=1) Resource_List.higher=1 Resource_List.hwlic=6000 Resource_List.hwlimit=1 Resource_List.mpiprocs=1 Resource_List.ncpus=1 Resource_List.nodect=1 Resource_List.place=free Resource_List.select=1:ncpus=1:mpiprocs=1:pas_applications_enabled=GUI Resource_List.software=Hvtrans session=32775 end=1678124071 Exit_status=0 resources_used.cpupercent=104 resources_used.cput=00:03:51 resources_used.mem=343292kb resources_used.ncpus=1 resources_used.vmem=1187896kb resources_used.walltime=00:05:20 run_count=1
03/07/2023 01:35:08;E;124337.ml-hpc-master01;user=grapesli group=users2 project=_pbs_project_default jobname=81_ADULT65_A_11_-4 queue=limitq ctime=1678099464 qtime=1678099464 etime=1678099464 start=1678119056 exec_host=ml-hpc-cn17/0*36 exec_vnode=(ml-hpc-cn17:ncpus=36) Resource_List.dynalic=36 Resource_List.higher=1 Resource_List.mpiprocs=36 Resource_List.ncpus=36 Resource_List.nodect=1 Resource_List.place=free Resource_List.select=1:ncpus=36:mpiprocs=36:pas_applications_enabled=Dyna:platform=P8260-48c-512G Resource_List.software=LS-Dyna session=56961 end=1678124108 Exit_status=0 resources_used.cpupercent=3600 resources_used.cput=49:38:06 resources_used.mem=9785584kb resources_used.ncpus=36 resources_used.vmem=25981576kb resources_used.walltime=01:23:27 run_count=1
03/07/2023 01:35:12;S;124437.ml-hpc-master01;user=grapesli group=users2 project=_pbs_project_default jobname=81_ADULT65_A_11_-4_h3d queue=limitq ctime=1678124059 qtime=1678124059 etime=1678124108 start=1678124112 exec_host=ml-rtx6000-ser002/1 exec_vnode=(ml-rtx6000-ser002:ncpus=1) Resource_List.higher=1 Resource_List.hwlic=6000 Resource_List.hwlimit=1 Resource_List.mpiprocs=1 Resource_List.ncpus=1 Resource_List.nodect=1 Resource_List.place=free Resource_List.select=1:ncpus=1:mpiprocs=1:pas_applications_enabled=GUI Resource_List.software=Hvtrans resource_assigned.ncpus=1 
03/07/2023 01:35:13;S;124343.ml-hpc-master01;user=grapesli group=users2 project=_pbs_project_default jobname=81_ADULT65_A_11_-7 queue=limitq ctime=1678099475 qtime=1678099475 etime=1678099475 start=1678124113 exec_host=ml-hpc-cn17/0*36 exec_vnode=(ml-hpc-cn17:ncpus=36) Resource_List.dynalic=36 Resource_List.higher=1 Resource_List.mpiprocs=36 Resource_List.ncpus=36 Resource_List.nodect=1 Resource_List.place=free Resource_List.select=1:ncpus=36:mpiprocs=36:pas_applications_enabled=Dyna:platform=P8260-48c-512G Resource_List.software=LS-Dyna resource_assigned.ncpus=36 
03/07/2023 01:39:09;E;124437.ml-hpc-master01;user=grapesli group=users2 project=_pbs_project_default jobname=81_ADULT65_A_11_-4_h3d queue=limitq ctime=1678124059 qtime=1678124059 etime=1678124108 start=1678124112 exec_host=ml-rtx6000-ser002/1 exec_vnode=(ml-rtx6000-ser002:ncpus=1) Resource_List.higher=1 Resource_List.hwlic=6000 Resource_List.hwlimit=1 Resource_List.mpiprocs=1 Resource_List.ncpus=1 Resource_List.nodect=1 Resource_List.place=free Resource_List.select=1:ncpus=1:mpiprocs=1:pas_applications_enabled=GUI Resource_List.software=Hvtrans session=56763 end=1678124349 Exit_status=0 resources_used.cpupercent=119 resources_used.cput=00:02:56 resources_used.mem=315852kb resources_used.ncpus=1 resources_used.vmem=1160784kb resources_used.walltime=00:02:22 run_count=1
03/07/2023 01:56:09;Q;124438.ml-hpc-master01;user=grapesli group=users2 project=_pbs_project_default jobname=81_ADULT65_A_11_-5_h3d queue=routeq ctime=1678125369 qtime=1678125369 etime=0 depend=afterany:124339.ml-hpc-master01@ml-hpc-master01 Resource_List.higher=1 Resource_List.hwlic=6000 Resource_List.hwlimit=1 Resource_List.mpiprocs=1 Resource_List.ncpus=1 Resource_List.nodect=1 Resource_List.place=free Resource_List.select=1:ncpus=1:mpiprocs=1:pas_applications_enabled=GUI Resource_List.software=Hvtrans 
03/07/2023 01:56:09;Q;124438.ml-hpc-master01;user=grapesli group=users2 project=_pbs_project_default jobname=81_ADULT65_A_11_-5_h3d queue=limitq ctime=1678125369 qtime=1678125369 etime=0 depend=afterany:124339.ml-hpc-master01@ml-hpc-master01 Resource_List.higher=1 Resource_List.hwlic=6000 Resource_List.hwlimit=1 Resource_List.mpiprocs=1 Resource_List.ncpus=1 Resource_List.nodect=1 Resource_List.place=free Resource_List.select=1:ncpus=1:mpiprocs=1:pas_applications_enabled=GUI Resource_List.software=Hvtrans 
03/07/2023 01:56:35;Q;124439.ml-hpc-master01;user=bilizhi group=users2 project=_pbs_project_default jobname=000_Main_C011_h3d queue=routeq ctime=1678125395 qtime=1678125395 etime=0 depend=afterany:124426.ml-hpc-master01@ml-hpc-master01 Resource_List.higher=1 Resource_List.hwlic=6000 Resource_List.hwlimit=1 Resource_List.mpiprocs=1 Resource_List.ncpus=1 Resource_List.nodect=1 Resource_List.place=free Resource_List.select=1:ncpus=1:mpiprocs=1:pas_applications_enabled=GUI Resource_List.software=Hvtrans 
03/07/2023 01:56:35;Q;124439.ml-hpc-master01;user=bilizhi group=users2 project=_pbs_project_default jobname=000_Main_C011_h3d queue=workq ctime=1678125395 qtime=1678125395 etime=0 depend=afterany:124426.ml-hpc-master01@ml-hpc-master01 Resource_List.higher=1 Resource_List.hwlic=6000 Resource_List.hwlimit=1 Resource_List.mpiprocs=1 Resource_List.ncpus=1 Resource_List.nodect=1 Resource_List.place=free Resource_List.select=1:ncpus=1:mpiprocs=1:pas_applications_enabled=GUI Resource_List.software=Hvtrans 
03/07/2023 01:56:57;E;124339.ml-hpc-master01;user=grapesli group=users2 project=_pbs_project_default jobname=81_ADULT65_A_11_-5 queue=limitq ctime=1678099467 qtime=1678099467 etime=1678099467 start=1678120386 exec_host=ml-hpc-cn15/0*36 exec_vnode=(ml-hpc-cn15:ncpus=36) Resource_List.dynalic=36 Resource_List.higher=1 Resource_List.mpiprocs=36 Resource_List.ncpus=36 Resource_List.nodect=1 Resource_List.place=free Resource_List.select=1:ncpus=36:mpiprocs=36:pas_applications_enabled=Dyna:platform=P8260-48c-512G Resource_List.software=LS-Dyna session=91648 end=1678125417 Exit_status=0 resources_used.cpupercent=3600 resources_used.cput=49:23:14 resources_used.mem=9805064kb resources_used.ncpus=36 resources_used.vmem=26006324kb resources_used.walltime=01:23:07 run_count=1
03/07/2023 01:56:58;E;124426.ml-hpc-master01;user=bilizhi group=users2 project=_pbs_project_default jobname=000_Main_C011 queue=workq ctime=1678115462 qtime=1678115462 etime=1678115462 start=1678115468 exec_host=ml-hpc-hfcn01/0*36+ml-hpc-hfcn02/0*36 exec_vnode=(ml-hpc-hfcn01:ncpus=36)+(ml-hpc-hfcn02:ncpus=36) Resource_List.dynalic=72 Resource_List.higher=1 Resource_List.mpiprocs=72 Resource_List.ncpus=72 Resource_List.nodect=2 Resource_List.place=free Resource_List.select=2:ncpus=36:mpiprocs=36:pas_applications_enabled=Dyna:platform=G6254-36c-384G Resource_List.software=LS-Dyna session=146880 end=1678125418 Exit_status=0 resources_used.cpupercent=3587 resources_used.cput=98:32:13 resources_used.mem=21871568kb resources_used.ncpus=72 resources_used.vmem=49350252kb resources_used.walltime=02:45:32 run_count=1
03/07/2023 01:57:01;S;124439.ml-hpc-master01;user=bilizhi group=users2 project=_pbs_project_default jobname=000_Main_C011_h3d queue=workq ctime=1678125395 qtime=1678125395 etime=1678125418 start=1678125421 exec_host=ml-rtx6000-ser002/1 exec_vnode=(ml-rtx6000-ser002:ncpus=1) Resource_List.higher=1 Resource_List.hwlic=6000 Resource_List.hwlimit=1 Resource_List.mpiprocs=1 Resource_List.ncpus=1 Resource_List.nodect=1 Resource_List.place=free Resource_List.select=1:ncpus=1:mpiprocs=1:pas_applications_enabled=GUI Resource_List.software=Hvtrans resource_assigned.ncpus=1 
03/07/2023 01:57:01;S;124438.ml-hpc-master01;user=grapesli group=users2 project=_pbs_project_default jobname=81_ADULT65_A_11_-5_h3d queue=limitq ctime=1678125369 qtime=1678125369 etime=1678125417 start=1678125421 exec_host=ml-rtx6000-ser002/3 exec_vnode=(ml-rtx6000-ser002:ncpus=1) Resource_List.higher=1 Resource_List.hwlic=6000 Resource_List.hwlimit=1 Resource_List.mpiprocs=1 Resource_List.ncpus=1 Resource_List.nodect=1 Resource_List.place=free Resource_List.select=1:ncpus=1:mpiprocs=1:pas_applications_enabled=GUI Resource_List.software=Hvtrans resource_assigned.ncpus=1 
03/07/2023 01:57:02;S;124344.ml-hpc-master01;user=grapesli group=users2 project=_pbs_project_default jobname=81_ADULT65_A_11_8 queue=limitq ctime=1678099476 qtime=1678099476 etime=1678099476 start=1678125422 exec_host=ml-hpc-cn15/0*36 exec_vnode=(ml-hpc-cn15:ncpus=36) Resource_List.dynalic=36 Resource_List.higher=1 Resource_List.mpiprocs=36 Resource_List.ncpus=36 Resource_List.nodect=1 Resource_List.place=free Resource_List.select=1:ncpus=36:mpiprocs=36:pas_applications_enabled=Dyna:platform=P8260-48c-512G Resource_List.software=LS-Dyna resource_assigned.ncpus=36 
03/07/2023 01:58:52;Q;124440.ml-hpc-master01;user=grapesli group=users2 project=_pbs_project_default jobname=81_ADULT65_A_11_5_h3d queue=routeq ctime=1678125532 qtime=1678125532 etime=0 depend=afterany:124338.ml-hpc-master01@ml-hpc-master01 Resource_List.higher=1 Resource_List.hwlic=6000 Resource_List.hwlimit=1 Resource_List.mpiprocs=1 Resource_List.ncpus=1 Resource_List.nodect=1 Resource_List.place=free Resource_List.select=1:ncpus=1:mpiprocs=1:pas_applications_enabled=GUI Resource_List.software=Hvtrans 
03/07/2023 01:58:52;Q;124440.ml-hpc-master01;user=grapesli group=users2 project=_pbs_project_default jobname=81_ADULT65_A_11_5_h3d queue=limitq ctime=1678125532 qtime=1678125532 etime=0 depend=afterany:124338.ml-hpc-master01@ml-hpc-master01 Resource_List.higher=1 Resource_List.hwlic=6000 Resource_List.hwlimit=1 Resource_List.mpiprocs=1 Resource_List.ncpus=1 Resource_List.nodect=1 Resource_List.place=free Resource_List.select=1:ncpus=1:mpiprocs=1:pas_applications_enabled=GUI Resource_List.software=Hvtrans 
03/07/2023 01:59:41;E;124338.ml-hpc-master01;user=grapesli group=users2 project=_pbs_project_default jobname=81_ADULT65_A_11_5 queue=limitq ctime=1678099466 qtime=1678099466 etime=1678099466 start=1678120371 exec_host=ml-hpc-cn18/0*36 exec_vnode=(ml-hpc-cn18:ncpus=36) Resource_List.dynalic=36 Resource_List.higher=1 Resource_List.mpiprocs=36 Resource_List.ncpus=36 Resource_List.nodect=1 Resource_List.place=free Resource_List.select=1:ncpus=36:mpiprocs=36:pas_applications_enabled=Dyna:platform=P8260-48c-512G Resource_List.software=LS-Dyna session=133222 end=1678125581 Exit_status=0 resources_used.cpupercent=3600 resources_used.cput=51:10:55 resources_used.mem=9800780kb resources_used.ncpus=36 resources_used.vmem=25968160kb resources_used.walltime=01:26:05 run_count=1
03/07/2023 01:59:44;S;124440.ml-hpc-master01;user=grapesli group=users2 project=_pbs_project_default jobname=81_ADULT65_A_11_5_h3d queue=limitq ctime=1678125532 qtime=1678125532 etime=1678125581 start=1678125584 exec_host=ml-rtx6000-ser002/7 exec_vnode=(ml-rtx6000-ser002:ncpus=1) Resource_List.higher=1 Resource_List.hwlic=6000 Resource_List.hwlimit=1 Resource_List.mpiprocs=1 Resource_List.ncpus=1 Resource_List.nodect=1 Resource_List.place=free Resource_List.select=1:ncpus=1:mpiprocs=1:pas_applications_enabled=GUI Resource_List.software=Hvtrans resource_assigned.ncpus=1 
03/07/2023 01:59:46;S;124345.ml-hpc-master01;user=grapesli group=users2 project=_pbs_project_default jobname=81_ADULT65_A_11_-8 queue=limitq ctime=1678099478 qtime=1678099478 etime=1678099478 start=1678125586 exec_host=ml-hpc-cn18/0*36 exec_vnode=(ml-hpc-cn18:ncpus=36) Resource_List.dynalic=36 Resource_List.higher=1 Resource_List.mpiprocs=36 Resource_List.ncpus=36 Resource_List.nodect=1 Resource_List.place=free Resource_List.select=1:ncpus=36:mpiprocs=36:pas_applications_enabled=Dyna:platform=P8260-48c-512G Resource_List.software=LS-Dyna resource_assigned.ncpus=36 
03/07/2023 02:00:00;L;license;floating license hour:102 day:102 month:102 max:102
03/07/2023 02:00:57;E;124438.ml-hpc-master01;user=grapesli group=users2 project=_pbs_project_default jobname=81_ADULT65_A_11_-5_h3d queue=limitq ctime=1678125369 qtime=1678125369 etime=1678125417 start=1678125421 exec_host=ml-rtx6000-ser002/3 exec_vnode=(ml-rtx6000-ser002:ncpus=1) Resource_List.higher=1 Resource_List.hwlic=6000 Resource_List.hwlimit=1 Resource_List.mpiprocs=1 Resource_List.ncpus=1 Resource_List.nodect=1 Resource_List.place=free Resource_List.select=1:ncpus=1:mpiprocs=1:pas_applications_enabled=GUI Resource_List.software=Hvtrans session=121808 end=1678125657 Exit_status=0 resources_used.cpupercent=119 resources_used.cput=00:02:56 resources_used.mem=339308kb resources_used.ncpus=1 resources_used.vmem=1187908kb resources_used.walltime=00:02:21 run_count=1
03/07/2023 02:03:18;E;124439.ml-hpc-master01;user=bilizhi group=users2 project=_pbs_project_default jobname=000_Main_C011_h3d queue=workq ctime=1678125395 qtime=1678125395 etime=1678125418 start=1678125421 exec_host=ml-rtx6000-ser002/1 exec_vnode=(ml-rtx6000-ser002:ncpus=1) Resource_List.higher=1 Resource_List.hwlic=6000 Resource_List.hwlimit=1 Resource_List.mpiprocs=1 Resource_List.ncpus=1 Resource_List.nodect=1 Resource_List.place=free Resource_List.select=1:ncpus=1:mpiprocs=1:pas_applications_enabled=GUI Resource_List.software=Hvtrans session=121807 end=1678125798 Exit_status=0 resources_used.cpupercent=135 resources_used.cput=00:06:58 resources_used.mem=532824kb resources_used.ncpus=1 resources_used.vmem=1362592kb resources_used.walltime=00:04:43 run_count=1
03/07/2023 02:03:40;E;124440.ml-hpc-master01;user=grapesli group=users2 project=_pbs_project_default jobname=81_ADULT65_A_11_5_h3d queue=limitq ctime=1678125532 qtime=1678125532 etime=1678125581 start=1678125584 exec_host=ml-rtx6000-ser002/7 exec_vnode=(ml-rtx6000-ser002:ncpus=1) Resource_List.higher=1 Resource_List.hwlic=6000 Resource_List.hwlimit=1 Resource_List.mpiprocs=1 Resource_List.ncpus=1 Resource_List.nodect=1 Resource_List.place=free Resource_List.select=1:ncpus=1:mpiprocs=1:pas_applications_enabled=GUI Resource_List.software=Hvtrans session=130242 end=1678125820 Exit_status=0 resources_used.cpupercent=120 resources_used.cput=00:03:14 resources_used.mem=315564kb resources_used.ncpus=1 resources_used.vmem=1160804kb resources_used.walltime=00:02:21 run_count=1
03/07/2023 02:04:40;Q;124441.ml-hpc-master01;user=grapesli group=users2 project=_pbs_project_default jobname=81_ADULT65_A_11_7_h3d queue=routeq ctime=1678125880 qtime=1678125880 etime=0 depend=afterany:124342.ml-hpc-master01@ml-hpc-master01 Resource_List.higher=1 Resource_List.hwlic=6000 Resource_List.hwlimit=1 Resource_List.mpiprocs=1 Resource_List.ncpus=1 Resource_List.nodect=1 Resource_List.place=free Resource_List.select=1:ncpus=1:mpiprocs=1:pas_applications_enabled=GUI Resource_List.software=Hvtrans 
03/07/2023 02:04:40;Q;124441.ml-hpc-master01;user=grapesli group=users2 project=_pbs_project_default jobname=81_ADULT65_A_11_7_h3d queue=limitq ctime=1678125880 qtime=1678125880 etime=0 depend=afterany:124342.ml-hpc-master01@ml-hpc-master01 Resource_List.higher=1 Resource_List.hwlic=6000 Resource_List.hwlimit=1 Resource_List.mpiprocs=1 Resource_List.ncpus=1 Resource_List.nodect=1 Resource_List.place=free Resource_List.select=1:ncpus=1:mpiprocs=1:pas_applications_enabled=GUI Resource_List.software=Hvtrans 
03/07/2023 02:05:30;E;124342.ml-hpc-master01;user=grapesli group=users2 project=_pbs_project_default jobname=81_ADULT65_A_11_7 queue=limitq ctime=1678099473 qtime=1678099473 etime=1678099473 start=1678123657 exec_host=ml-hpc-cn16/0*36 exec_vnode=(ml-hpc-cn16:ncpus=36) Resource_List.dynalic=36 Resource_List.higher=1 Resource_List.mpiprocs=36 Resource_List.ncpus=36 Resource_List.nodect=1 Resource_List.place=free Resource_List.select=1:ncpus=36:mpiprocs=36:pas_applications_enabled=Dyna:platform=P8260-48c-512G Resource_List.software=LS-Dyna session=197345 end=1678125930 Exit_status=166 resources_used.cpupercent=3596 resources_used.cput=21:51:35 resources_used.mem=9786880kb resources_used.ncpus=36 resources_used.vmem=25982724kb resources_used.walltime=00:37:06 run_count=1
03/07/2023 02:05:34;S;124441.ml-hpc-master01;user=grapesli group=users2 project=_pbs_project_default jobname=81_ADULT65_A_11_7_h3d queue=limitq ctime=1678125880 qtime=1678125880 etime=1678125930 start=1678125934 exec_host=ml-rtx6000-ser002/1 exec_vnode=(ml-rtx6000-ser002:ncpus=1) Resource_List.higher=1 Resource_List.hwlic=6000 Resource_List.hwlimit=1 Resource_List.mpiprocs=1 Resource_List.ncpus=1 Resource_List.nodect=1 Resource_List.place=free Resource_List.select=1:ncpus=1:mpiprocs=1:pas_applications_enabled=GUI Resource_List.software=Hvtrans resource_assigned.ncpus=1 
03/07/2023 02:05:36;S;124346.ml-hpc-master01;user=grapesli group=users2 project=_pbs_project_default jobname=81_ADULT65_A_12_6 queue=limitq ctime=1678099479 qtime=1678099479 etime=1678099479 start=1678125936 exec_host=ml-hpc-cn16/0*36 exec_vnode=(ml-hpc-cn16:ncpus=36) Resource_List.dynalic=36 Resource_List.higher=1 Resource_List.mpiprocs=36 Resource_List.ncpus=36 Resource_List.nodect=1 Resource_List.place=free Resource_List.select=1:ncpus=36:mpiprocs=36:pas_applications_enabled=Dyna:platform=P8260-48c-512G Resource_List.software=LS-Dyna resource_assigned.ncpus=36 
03/07/2023 02:08:36;E;124441.ml-hpc-master01;user=grapesli group=users2 project=_pbs_project_default jobname=81_ADULT65_A_11_7_h3d queue=limitq ctime=1678125880 qtime=1678125880 etime=1678125930 start=1678125934 exec_host=ml-rtx6000-ser002/1 exec_vnode=(ml-rtx6000-ser002:ncpus=1) Resource_List.higher=1 Resource_List.hwlic=6000 Resource_List.hwlimit=1 Resource_List.mpiprocs=1 Resource_List.ncpus=1 Resource_List.nodect=1 Resource_List.place=free Resource_List.select=1:ncpus=1:mpiprocs=1:pas_applications_enabled=GUI Resource_List.software=Hvtrans session=148403 end=1678126116 Exit_status=0 resources_used.cpupercent=109 resources_used.cput=00:01:46 resources_used.mem=314952kb resources_used.ncpus=1 resources_used.vmem=1160788kb resources_used.walltime=00:01:27 run_count=1
03/07/2023 02:09:42;Q;124442.ml-hpc-master01;user=grapesli group=users2 project=_pbs_project_default jobname=81_ADULT65_A_11_6_h3d queue=routeq ctime=1678126182 qtime=1678126182 etime=0 depend=afterany:124340.ml-hpc-master01@ml-hpc-master01 Resource_List.higher=1 Resource_List.hwlic=6000 Resource_List.hwlimit=1 Resource_List.mpiprocs=1 Resource_List.ncpus=1 Resource_List.nodect=1 Resource_List.place=free Resource_List.select=1:ncpus=1:mpiprocs=1:pas_applications_enabled=GUI Resource_List.software=Hvtrans 
03/07/2023 02:09:42;Q;124442.ml-hpc-master01;user=grapesli group=users2 project=_pbs_project_default jobname=81_ADULT65_A_11_6_h3d queue=limitq ctime=1678126182 qtime=1678126182 etime=0 depend=afterany:124340.ml-hpc-master01@ml-hpc-master01 Resource_List.higher=1 Resource_List.hwlic=6000 Resource_List.hwlimit=1 Resource_List.mpiprocs=1 Resource_List.ncpus=1 Resource_List.nodect=1 Resource_List.place=free Resource_List.select=1:ncpus=1:mpiprocs=1:pas_applications_enabled=GUI Resource_List.software=Hvtrans 
03/07/2023 02:10:33;E;124340.ml-hpc-master01;user=grapesli group=users2 project=_pbs_project_default jobname=81_ADULT65_A_11_6 queue=limitq ctime=1678099470 qtime=1678099470 etime=1678099470 start=1678121045 exec_host=ml-hpc-cn56/0*36 exec_vnode=(ml-hpc-cn56:ncpus=36) Resource_List.dynalic=36 Resource_List.higher=1 Resource_List.mpiprocs=36 Resource_List.ncpus=36 Resource_List.nodect=1 Resource_List.place=free Resource_List.select=1:ncpus=36:mpiprocs=36:pas_applications_enabled=Dyna:platform=P8260-48c-512G Resource_List.software=LS-Dyna session=94944 end=1678126233 Exit_status=0 resources_used.cpupercent=3600 resources_used.cput=50:59:19 resources_used.mem=9821152kb resources_used.ncpus=36 resources_used.vmem=26013412kb resources_used.walltime=01:25:41 run_count=1
03/07/2023 02:10:36;S;124442.ml-hpc-master01;user=grapesli group=users2 project=_pbs_project_default jobname=81_ADULT65_A_11_6_h3d queue=limitq ctime=1678126182 qtime=1678126182 etime=1678126233 start=1678126236 exec_host=ml-rtx6000-ser002/1 exec_vnode=(ml-rtx6000-ser002:ncpus=1) Resource_List.higher=1 Resource_List.hwlic=6000 Resource_List.hwlimit=1 Resource_List.mpiprocs=1 Resource_List.ncpus=1 Resource_List.nodect=1 Resource_List.place=free Resource_List.select=1:ncpus=1:mpiprocs=1:pas_applications_enabled=GUI Resource_List.software=Hvtrans resource_assigned.ncpus=1 
03/07/2023 02:10:38;S;124347.ml-hpc-master01;user=grapesli group=users2 project=_pbs_project_default jobname=81_ADULT65_A_12_-6 queue=limitq ctime=1678099481 qtime=1678099481 etime=1678099481 start=1678126238 exec_host=ml-hpc-cn56/0*36 exec_vnode=(ml-hpc-cn56:ncpus=36) Resource_List.dynalic=36 Resource_List.higher=1 Resource_List.mpiprocs=36 Resource_List.ncpus=36 Resource_List.nodect=1 Resource_List.place=free Resource_List.select=1:ncpus=36:mpiprocs=36:pas_applications_enabled=Dyna:platform=P8260-48c-512G Resource_List.software=LS-Dyna resource_assigned.ncpus=36 
03/07/2023 02:14:33;E;124442.ml-hpc-master01;user=grapesli group=users2 project=_pbs_project_default jobname=81_ADULT65_A_11_6_h3d queue=limitq ctime=1678126182 qtime=1678126182 etime=1678126233 start=1678126236 exec_host=ml-rtx6000-ser002/1 exec_vnode=(ml-rtx6000-ser002:ncpus=1) Resource_List.higher=1 Resource_List.hwlic=6000 Resource_List.hwlimit=1 Resource_List.mpiprocs=1 Resource_List.ncpus=1 Resource_List.nodect=1 Resource_List.place=free Resource_List.select=1:ncpus=1:mpiprocs=1:pas_applications_enabled=GUI Resource_List.software=Hvtrans session=163180 end=1678126473 Exit_status=0 resources_used.cpupercent=118 resources_used.cput=00:02:57 resources_used.mem=295824kb resources_used.ncpus=1 resources_used.vmem=1142612kb resources_used.walltime=00:02:23 run_count=1
03/07/2023 02:31:25;Q;124443.ml-hpc-master01;user=grapesli group=users2 project=_pbs_project_default jobname=81_ADULT65_A_11_-7_h3d queue=routeq ctime=1678127485 qtime=1678127485 etime=0 depend=afterany:124343.ml-hpc-master01@ml-hpc-master01 Resource_List.higher=1 Resource_List.hwlic=6000 Resource_List.hwlimit=1 Resource_List.mpiprocs=1 Resource_List.ncpus=1 Resource_List.nodect=1 Resource_List.place=free Resource_List.select=1:ncpus=1:mpiprocs=1:pas_applications_enabled=GUI Resource_List.software=Hvtrans 
03/07/2023 02:31:25;Q;124443.ml-hpc-master01;user=grapesli group=users2 project=_pbs_project_default jobname=81_ADULT65_A_11_-7_h3d queue=limitq ctime=1678127485 qtime=1678127485 etime=0 depend=afterany:124343.ml-hpc-master01@ml-hpc-master01 Resource_List.higher=1 Resource_List.hwlic=6000 Resource_List.hwlimit=1 Resource_List.mpiprocs=1 Resource_List.ncpus=1 Resource_List.nodect=1 Resource_List.place=free Resource_List.select=1:ncpus=1:mpiprocs=1:pas_applications_enabled=GUI Resource_List.software=Hvtrans 
03/07/2023 02:32:06;E;124343.ml-hpc-master01;user=grapesli group=users2 project=_pbs_project_default jobname=81_ADULT65_A_11_-7 queue=limitq ctime=1678099475 qtime=1678099475 etime=1678099475 start=1678124113 exec_host=ml-hpc-cn17/0*36 exec_vnode=(ml-hpc-cn17:ncpus=36) Resource_List.dynalic=36 Resource_List.higher=1 Resource_List.mpiprocs=36 Resource_List.ncpus=36 Resource_List.nodect=1 Resource_List.place=free Resource_List.select=1:ncpus=36:mpiprocs=36:pas_applications_enabled=Dyna:platform=P8260-48c-512G Resource_List.software=LS-Dyna session=217272 end=1678127526 Exit_status=0 resources_used.cpupercent=3600 resources_used.cput=33:22:48 resources_used.mem=9768368kb resources_used.ncpus=36 resources_used.vmem=26001040kb resources_used.walltime=00:56:16 run_count=1
03/07/2023 02:32:09;S;124443.ml-hpc-master01;user=grapesli group=users2 project=_pbs_project_default jobname=81_ADULT65_A_11_-7_h3d queue=limitq ctime=1678127485 qtime=1678127485 etime=1678127526 start=1678127529 exec_host=ml-rtx6000-ser002/5 exec_vnode=(ml-rtx6000-ser002:ncpus=1) Resource_List.higher=1 Resource_List.hwlic=6000 Resource_List.hwlimit=1 Resource_List.mpiprocs=1 Resource_List.ncpus=1 Resource_List.nodect=1 Resource_List.place=free Resource_List.select=1:ncpus=1:mpiprocs=1:pas_applications_enabled=GUI Resource_List.software=Hvtrans resource_assigned.ncpus=1 
03/07/2023 02:32:11;S;124348.ml-hpc-master01;user=grapesli group=users2 project=_pbs_project_default jobname=81_ADULT65_A_12_7 queue=limitq ctime=1678099483 qtime=1678099483 etime=1678099483 start=1678127531 exec_host=ml-hpc-cn17/0*36 exec_vnode=(ml-hpc-cn17:ncpus=36) Resource_List.dynalic=36 Resource_List.higher=1 Resource_List.mpiprocs=36 Resource_List.ncpus=36 Resource_List.nodect=1 Resource_List.place=free Resource_List.select=1:ncpus=36:mpiprocs=36:pas_applications_enabled=Dyna:platform=P8260-48c-512G Resource_List.software=LS-Dyna resource_assigned.ncpus=36 
03/07/2023 02:35:39;E;124443.ml-hpc-master01;user=grapesli group=users2 project=_pbs_project_default jobname=81_ADULT65_A_11_-7_h3d queue=limitq ctime=1678127485 qtime=1678127485 etime=1678127526 start=1678127529 exec_host=ml-rtx6000-ser002/5 exec_vnode=(ml-rtx6000-ser002:ncpus=1) Resource_List.higher=1 Resource_List.hwlic=6000 Resource_List.hwlimit=1 Resource_List.mpiprocs=1 Resource_List.ncpus=1 Resource_List.nodect=1 Resource_List.place=free Resource_List.select=1:ncpus=1:mpiprocs=1:pas_applications_enabled=GUI Resource_List.software=Hvtrans session=228807 end=1678127739 Exit_status=0 resources_used.cpupercent=118 resources_used.cput=00:02:58 resources_used.mem=341780kb resources_used.ncpus=1 resources_used.vmem=1187896kb resources_used.walltime=00:01:55 run_count=1
03/07/2023 02:37:41;Q;124444.ml-hpc-master01;user=grapesli group=users2 project=_pbs_project_default jobname=81_ADULT65_A_11_-6_h3d queue=routeq ctime=1678127861 qtime=1678127861 etime=0 depend=afterany:124341.ml-hpc-master01@ml-hpc-master01 Resource_List.higher=1 Resource_List.hwlic=6000 Resource_List.hwlimit=1 Resource_List.mpiprocs=1 Resource_List.ncpus=1 Resource_List.nodect=1 Resource_List.place=free Resource_List.select=1:ncpus=1:mpiprocs=1:pas_applications_enabled=GUI Resource_List.software=Hvtrans 
03/07/2023 02:37:41;Q;124444.ml-hpc-master01;user=grapesli group=users2 project=_pbs_project_default jobname=81_ADULT65_A_11_-6_h3d queue=limitq ctime=1678127861 qtime=1678127861 etime=0 depend=afterany:124341.ml-hpc-master01@ml-hpc-master01 Resource_List.higher=1 Resource_List.hwlic=6000 Resource_List.hwlimit=1 Resource_List.mpiprocs=1 Resource_List.ncpus=1 Resource_List.nodect=1 Resource_List.place=free Resource_List.select=1:ncpus=1:mpiprocs=1:pas_applications_enabled=GUI Resource_List.software=Hvtrans 
03/07/2023 02:38:45;E;124341.ml-hpc-master01;user=grapesli group=users2 project=_pbs_project_default jobname=81_ADULT65_A_11_-6 queue=limitq ctime=1678099471 qtime=1678099471 etime=1678099471 start=1678123466 exec_host=ml-hpc-cn14/0*36 exec_vnode=(ml-hpc-cn14:ncpus=36) Resource_List.dynalic=36 Resource_List.higher=1 Resource_List.mpiprocs=36 Resource_List.ncpus=36 Resource_List.nodect=1 Resource_List.place=free Resource_List.select=1:ncpus=36:mpiprocs=36:pas_applications_enabled=Dyna:platform=P8260-48c-512G Resource_List.software=LS-Dyna session=19758 end=1678127925 Exit_status=30 resources_used.cpupercent=3600 resources_used.cput=43:27:14 resources_used.mem=9810520kb resources_used.ncpus=36 resources_used.vmem=26005676kb resources_used.walltime=01:13:18 run_count=1
03/07/2023 02:38:48;S;124444.ml-hpc-master01;user=grapesli group=users2 project=_pbs_project_default jobname=81_ADULT65_A_11_-6_h3d queue=limitq ctime=1678127861 qtime=1678127861 etime=1678127925 start=1678127928 exec_host=ml-rtx6000-ser002/1 exec_vnode=(ml-rtx6000-ser002:ncpus=1) Resource_List.higher=1 Resource_List.hwlic=6000 Resource_List.hwlimit=1 Resource_List.mpiprocs=1 Resource_List.ncpus=1 Resource_List.nodect=1 Resource_List.place=free Resource_List.select=1:ncpus=1:mpiprocs=1:pas_applications_enabled=GUI Resource_List.software=Hvtrans resource_assigned.ncpus=1 
03/07/2023 02:38:50;S;124349.ml-hpc-master01;user=grapesli group=users2 project=_pbs_project_default jobname=81_ADULT65_A_12_-7 queue=limitq ctime=1678099484 qtime=1678099484 etime=1678099484 start=1678127930 exec_host=ml-hpc-cn14/0*36 exec_vnode=(ml-hpc-cn14:ncpus=36) Resource_List.dynalic=36 Resource_List.higher=1 Resource_List.mpiprocs=36 Resource_List.ncpus=36 Resource_List.nodect=1 Resource_List.place=free Resource_List.select=1:ncpus=36:mpiprocs=36:pas_applications_enabled=Dyna:platform=P8260-48c-512G Resource_List.software=LS-Dyna resource_assigned.ncpus=36 
03/07/2023 02:42:31;E;124444.ml-hpc-master01;user=grapesli group=users2 project=_pbs_project_default jobname=81_ADULT65_A_11_-6_h3d queue=limitq ctime=1678127861 qtime=1678127861 etime=1678127925 start=1678127928 exec_host=ml-rtx6000-ser002/1 exec_vnode=(ml-rtx6000-ser002:ncpus=1) Resource_List.higher=1 Resource_List.hwlic=6000 Resource_List.hwlimit=1 Resource_List.mpiprocs=1 Resource_List.ncpus=1 Resource_List.nodect=1 Resource_List.place=free Resource_List.select=1:ncpus=1:mpiprocs=1:pas_applications_enabled=GUI Resource_List.software=Hvtrans session=19637 end=1678128151 Exit_status=0 resources_used.cpupercent=118 resources_used.cput=00:02:53 resources_used.mem=342020kb resources_used.ncpus=1 resources_used.vmem=1210800kb resources_used.walltime=00:02:08 run_count=1
03/07/2023 02:47:06;Q;124445.ml-hpc-master01;user=grapesli group=users2 project=_pbs_project_default jobname=81_ADULT65_A_11_8_h3d queue=routeq ctime=1678128426 qtime=1678128426 etime=0 depend=afterany:124344.ml-hpc-master01@ml-hpc-master01 Resource_List.higher=1 Resource_List.hwlic=6000 Resource_List.hwlimit=1 Resource_List.mpiprocs=1 Resource_List.ncpus=1 Resource_List.nodect=1 Resource_List.place=free Resource_List.select=1:ncpus=1:mpiprocs=1:pas_applications_enabled=GUI Resource_List.software=Hvtrans 
03/07/2023 02:47:06;Q;124445.ml-hpc-master01;user=grapesli group=users2 project=_pbs_project_default jobname=81_ADULT65_A_11_8_h3d queue=limitq ctime=1678128426 qtime=1678128426 etime=0 depend=afterany:124344.ml-hpc-master01@ml-hpc-master01 Resource_List.higher=1 Resource_List.hwlic=6000 Resource_List.hwlimit=1 Resource_List.mpiprocs=1 Resource_List.ncpus=1 Resource_List.nodect=1 Resource_List.place=free Resource_List.select=1:ncpus=1:mpiprocs=1:pas_applications_enabled=GUI Resource_List.software=Hvtrans 
03/07/2023 02:48:01;E;124344.ml-hpc-master01;user=grapesli group=users2 project=_pbs_project_default jobname=81_ADULT65_A_11_8 queue=limitq ctime=1678099476 qtime=1678099476 etime=1678099476 start=1678125422 exec_host=ml-hpc-cn15/0*36 exec_vnode=(ml-hpc-cn15:ncpus=36) Resource_List.dynalic=36 Resource_List.higher=1 Resource_List.mpiprocs=36 Resource_List.ncpus=36 Resource_List.nodect=1 Resource_List.place=free Resource_List.select=1:ncpus=36:mpiprocs=36:pas_applications_enabled=Dyna:platform=P8260-48c-512G Resource_List.software=LS-Dyna session=19745 end=1678128481 Exit_status=184 resources_used.cpupercent=3597 resources_used.cput=29:43:19 resources_used.mem=9809480kb resources_used.ncpus=36 resources_used.vmem=25980544kb resources_used.walltime=00:50:07 run_count=1
03/07/2023 02:48:04;S;124445.ml-hpc-master01;user=grapesli group=users2 project=_pbs_project_default jobname=81_ADULT65_A_11_8_h3d queue=limitq ctime=1678128426 qtime=1678128426 etime=1678128481 start=1678128484 exec_host=ml-rtx6000-ser002/1 exec_vnode=(ml-rtx6000-ser002:ncpus=1) Resource_List.higher=1 Resource_List.hwlic=6000 Resource_List.hwlimit=1 Resource_List.mpiprocs=1 Resource_List.ncpus=1 Resource_List.nodect=1 Resource_List.place=free Resource_List.select=1:ncpus=1:mpiprocs=1:pas_applications_enabled=GUI Resource_List.software=Hvtrans resource_assigned.ncpus=1 
03/07/2023 02:48:06;S;124350.ml-hpc-master01;user=grapesli group=users2 project=_pbs_project_default jobname=81_ADULT65_A_12_8 queue=limitq ctime=1678099487 qtime=1678099487 etime=1678099487 start=1678128486 exec_host=ml-hpc-cn15/0*36 exec_vnode=(ml-hpc-cn15:ncpus=36) Resource_List.dynalic=36 Resource_List.higher=1 Resource_List.mpiprocs=36 Resource_List.ncpus=36 Resource_List.nodect=1 Resource_List.place=free Resource_List.select=1:ncpus=36:mpiprocs=36:pas_applications_enabled=Dyna:platform=P8260-48c-512G Resource_List.software=LS-Dyna resource_assigned.ncpus=36 
03/07/2023 02:51:19;E;124445.ml-hpc-master01;user=grapesli group=users2 project=_pbs_project_default jobname=81_ADULT65_A_11_8_h3d queue=limitq ctime=1678128426 qtime=1678128426 etime=1678128481 start=1678128484 exec_host=ml-rtx6000-ser002/1 exec_vnode=(ml-rtx6000-ser002:ncpus=1) Resource_List.higher=1 Resource_List.hwlic=6000 Resource_List.hwlimit=1 Resource_List.mpiprocs=1 Resource_List.ncpus=1 Resource_List.nodect=1 Resource_List.place=free Resource_List.select=1:ncpus=1:mpiprocs=1:pas_applications_enabled=GUI Resource_List.software=Hvtrans session=48313 end=1678128679 Exit_status=0 resources_used.cpupercent=107 resources_used.cput=00:01:45 resources_used.mem=299376kb resources_used.ncpus=1 resources_used.vmem=1145412kb resources_used.walltime=00:01:40 run_count=1
03/07/2023 02:55:56;Q;124446.ml-hpc-master01;user=grapesli group=users2 project=_pbs_project_default jobname=81_ADULT65_A_11_-8_h3d queue=routeq ctime=1678128956 qtime=1678128956 etime=0 depend=afterany:124345.ml-hpc-master01@ml-hpc-master01 Resource_List.higher=1 Resource_List.hwlic=6000 Resource_List.hwlimit=1 Resource_List.mpiprocs=1 Resource_List.ncpus=1 Resource_List.nodect=1 Resource_List.place=free Resource_List.select=1:ncpus=1:mpiprocs=1:pas_applications_enabled=GUI Resource_List.software=Hvtrans 
03/07/2023 02:55:56;Q;124446.ml-hpc-master01;user=grapesli group=users2 project=_pbs_project_default jobname=81_ADULT65_A_11_-8_h3d queue=limitq ctime=1678128956 qtime=1678128956 etime=0 depend=afterany:124345.ml-hpc-master01@ml-hpc-master01 Resource_List.higher=1 Resource_List.hwlic=6000 Resource_List.hwlimit=1 Resource_List.mpiprocs=1 Resource_List.ncpus=1 Resource_List.nodect=1 Resource_List.place=free Resource_List.select=1:ncpus=1:mpiprocs=1:pas_applications_enabled=GUI Resource_List.software=Hvtrans 
03/07/2023 02:56:34;E;124345.ml-hpc-master01;user=grapesli group=users2 project=_pbs_project_default jobname=81_ADULT65_A_11_-8 queue=limitq ctime=1678099478 qtime=1678099478 etime=1678099478 start=1678125586 exec_host=ml-hpc-cn18/0*36 exec_vnode=(ml-hpc-cn18:ncpus=36) Resource_List.dynalic=36 Resource_List.higher=1 Resource_List.mpiprocs=36 Resource_List.ncpus=36 Resource_List.nodect=1 Resource_List.place=free Resource_List.select=1:ncpus=36:mpiprocs=36:pas_applications_enabled=Dyna:platform=P8260-48c-512G Resource_List.software=LS-Dyna session=72292 end=1678128994 Exit_status=0 resources_used.cpupercent=3600 resources_used.cput=33:22:01 resources_used.mem=9844424kb resources_used.ncpus=36 resources_used.vmem=26015528kb resources_used.walltime=00:56:14 run_count=1
03/07/2023 02:56:38;S;124446.ml-hpc-master01;user=grapesli group=users2 project=_pbs_project_default jobname=81_ADULT65_A_11_-8_h3d queue=limitq ctime=1678128956 qtime=1678128956 etime=1678128994 start=1678128998 exec_host=ml-rtx6000-ser002/1 exec_vnode=(ml-rtx6000-ser002:ncpus=1) Resource_List.higher=1 Resource_List.hwlic=6000 Resource_List.hwlimit=1 Resource_List.mpiprocs=1 Resource_List.ncpus=1 Resource_List.nodect=1 Resource_List.place=free Resource_List.select=1:ncpus=1:mpiprocs=1:pas_applications_enabled=GUI Resource_List.software=Hvtrans resource_assigned.ncpus=1 
03/07/2023 02:56:40;S;124351.ml-hpc-master01;user=grapesli group=users2 project=_pbs_project_default jobname=81_ADULT65_A_12_-8 queue=limitq ctime=1678099488 qtime=1678099488 etime=1678099488 start=1678129000 exec_host=ml-hpc-cn18/0*36 exec_vnode=(ml-hpc-cn18:ncpus=36) Resource_List.dynalic=36 Resource_List.higher=1 Resource_List.mpiprocs=36 Resource_List.ncpus=36 Resource_List.nodect=1 Resource_List.place=free Resource_List.select=1:ncpus=36:mpiprocs=36:pas_applications_enabled=Dyna:platform=P8260-48c-512G Resource_List.software=LS-Dyna resource_assigned.ncpus=36 
03/07/2023 03:00:00;L;license;floating license hour:102 day:102 month:102 max:102
03/07/2023 03:00:08;E;124446.ml-hpc-master01;user=grapesli group=users2 project=_pbs_project_default jobname=81_ADULT65_A_11_-8_h3d queue=limitq ctime=1678128956 qtime=1678128956 etime=1678128994 start=1678128998 exec_host=ml-rtx6000-ser002/1 exec_vnode=(ml-rtx6000-ser002:ncpus=1) Resource_List.higher=1 Resource_List.hwlic=6000 Resource_List.hwlimit=1 Resource_List.mpiprocs=1 Resource_List.ncpus=1 Resource_List.nodect=1 Resource_List.place=free Resource_List.select=1:ncpus=1:mpiprocs=1:pas_applications_enabled=GUI Resource_List.software=Hvtrans session=74225 end=1678129208 Exit_status=0 resources_used.cpupercent=118 resources_used.cput=00:02:55 resources_used.mem=342492kb resources_used.ncpus=1 resources_used.vmem=1187912kb resources_used.walltime=00:01:55 run_count=1
03/07/2023 03:02:43;Q;124447.ml-hpc-master01;user=grapesli group=users2 project=_pbs_project_default jobname=81_ADULT65_A_12_-7_h3d queue=routeq ctime=1678129363 qtime=1678129363 etime=0 depend=afterany:124349.ml-hpc-master01@ml-hpc-master01 Resource_List.higher=1 Resource_List.hwlic=6000 Resource_List.hwlimit=1 Resource_List.mpiprocs=1 Resource_List.ncpus=1 Resource_List.nodect=1 Resource_List.place=free Resource_List.select=1:ncpus=1:mpiprocs=1:pas_applications_enabled=GUI Resource_List.software=Hvtrans 
03/07/2023 03:02:43;Q;124447.ml-hpc-master01;user=grapesli group=users2 project=_pbs_project_default jobname=81_ADULT65_A_12_-7_h3d queue=limitq ctime=1678129363 qtime=1678129363 etime=0 depend=afterany:124349.ml-hpc-master01@ml-hpc-master01 Resource_List.higher=1 Resource_List.hwlic=6000 Resource_List.hwlimit=1 Resource_List.mpiprocs=1 Resource_List.ncpus=1 Resource_List.nodect=1 Resource_List.place=free Resource_List.select=1:ncpus=1:mpiprocs=1:pas_applications_enabled=GUI Resource_List.software=Hvtrans 
03/07/2023 03:03:07;E;124349.ml-hpc-master01;user=grapesli group=users2 project=_pbs_project_default jobname=81_ADULT65_A_12_-7 queue=limitq ctime=1678099484 qtime=1678099484 etime=1678099484 start=1678127930 exec_host=ml-hpc-cn14/0*36 exec_vnode=(ml-hpc-cn14:ncpus=36) Resource_List.dynalic=36 Resource_List.higher=1 Resource_List.mpiprocs=36 Resource_List.ncpus=36 Resource_List.nodect=1 Resource_List.place=free Resource_List.select=1:ncpus=36:mpiprocs=36:pas_applications_enabled=Dyna:platform=P8260-48c-512G Resource_List.software=LS-Dyna session=145497 end=1678129387 Exit_status=1 resources_used.cpupercent=3584 resources_used.cput=14:02:04 resources_used.mem=9756044kb resources_used.ncpus=36 resources_used.vmem=25910816kb resources_used.walltime=00:23:56 run_count=1
03/07/2023 03:03:10;S;124447.ml-hpc-master01;user=grapesli group=users2 project=_pbs_project_default jobname=81_ADULT65_A_12_-7_h3d queue=limitq ctime=1678129363 qtime=1678129363 etime=1678129387 start=1678129390 exec_host=ml-rtx6000-ser002/5 exec_vnode=(ml-rtx6000-ser002:ncpus=1) Resource_List.higher=1 Resource_List.hwlic=6000 Resource_List.hwlimit=1 Resource_List.mpiprocs=1 Resource_List.ncpus=1 Resource_List.nodect=1 Resource_List.place=free Resource_List.select=1:ncpus=1:mpiprocs=1:pas_applications_enabled=GUI Resource_List.software=Hvtrans resource_assigned.ncpus=1 
03/07/2023 03:03:12;S;124352.ml-hpc-master01;user=grapesli group=users2 project=_pbs_project_default jobname=81_ADULT65_A_13_8 queue=limitq ctime=1678099491 qtime=1678099491 etime=1678099491 start=1678129392 exec_host=ml-hpc-cn14/0*36 exec_vnode=(ml-hpc-cn14:ncpus=36) Resource_List.dynalic=36 Resource_List.higher=1 Resource_List.mpiprocs=36 Resource_List.ncpus=36 Resource_List.nodect=1 Resource_List.place=free Resource_List.select=1:ncpus=36:mpiprocs=36:pas_applications_enabled=Dyna:platform=P8260-48c-512G Resource_List.software=LS-Dyna resource_assigned.ncpus=36 
03/07/2023 03:06:01;E;124447.ml-hpc-master01;user=grapesli group=users2 project=_pbs_project_default jobname=81_ADULT65_A_12_-7_h3d queue=limitq ctime=1678129363 qtime=1678129363 etime=1678129387 start=1678129390 exec_host=ml-rtx6000-ser002/5 exec_vnode=(ml-rtx6000-ser002:ncpus=1) Resource_List.higher=1 Resource_List.hwlic=6000 Resource_List.hwlimit=1 Resource_List.mpiprocs=1 Resource_List.ncpus=1 Resource_List.nodect=1 Resource_List.place=free Resource_List.select=1:ncpus=1:mpiprocs=1:pas_applications_enabled=GUI Resource_List.software=Hvtrans session=94318 end=1678129561 Exit_status=0 resources_used.cpupercent=105 resources_used.cput=00:01:24 resources_used.mem=328268kb resources_used.ncpus=1 resources_used.vmem=1187916kb resources_used.walltime=00:01:16 run_count=1
03/07/2023 03:29:58;Q;124448.ml-hpc-master01;user=grapesli group=users2 project=_pbs_project_default jobname=81_ADULT65_A_12_7_h3d queue=routeq ctime=1678130998 qtime=1678130998 etime=0 depend=afterany:124348.ml-hpc-master01@ml-hpc-master01 Resource_List.higher=1 Resource_List.hwlic=6000 Resource_List.hwlimit=1 Resource_List.mpiprocs=1 Resource_List.ncpus=1 Resource_List.nodect=1 Resource_List.place=free Resource_List.select=1:ncpus=1:mpiprocs=1:pas_applications_enabled=GUI Resource_List.software=Hvtrans 
03/07/2023 03:29:58;Q;124448.ml-hpc-master01;user=grapesli group=users2 project=_pbs_project_default jobname=81_ADULT65_A_12_7_h3d queue=limitq ctime=1678130998 qtime=1678130998 etime=0 depend=afterany:124348.ml-hpc-master01@ml-hpc-master01 Resource_List.higher=1 Resource_List.hwlic=6000 Resource_List.hwlimit=1 Resource_List.mpiprocs=1 Resource_List.ncpus=1 Resource_List.nodect=1 Resource_List.place=free Resource_List.select=1:ncpus=1:mpiprocs=1:pas_applications_enabled=GUI Resource_List.software=Hvtrans 
03/07/2023 03:30:39;E;124348.ml-hpc-master01;user=grapesli group=users2 project=_pbs_project_default jobname=81_ADULT65_A_12_7 queue=limitq ctime=1678099483 qtime=1678099483 etime=1678099483 start=1678127531 exec_host=ml-hpc-cn17/0*36 exec_vnode=(ml-hpc-cn17:ncpus=36) Resource_List.dynalic=36 Resource_List.higher=1 Resource_List.mpiprocs=36 Resource_List.ncpus=36 Resource_List.nodect=1 Resource_List.place=free Resource_List.select=1:ncpus=36:mpiprocs=36:pas_applications_enabled=Dyna:platform=P8260-48c-512G Resource_List.software=LS-Dyna session=52734 end=1678131039 Exit_status=0 resources_used.cpupercent=3599 resources_used.cput=34:20:34 resources_used.mem=9807444kb resources_used.ncpus=36 resources_used.vmem=26016144kb resources_used.walltime=00:57:51 run_count=1
03/07/2023 03:30:42;S;124448.ml-hpc-master01;user=grapesli group=users2 project=_pbs_project_default jobname=81_ADULT65_A_12_7_h3d queue=limitq ctime=1678130998 qtime=1678130998 etime=1678131039 start=1678131042 exec_host=ml-rtx6000-ser002/1 exec_vnode=(ml-rtx6000-ser002:ncpus=1) Resource_List.higher=1 Resource_List.hwlic=6000 Resource_List.hwlimit=1 Resource_List.mpiprocs=1 Resource_List.ncpus=1 Resource_List.nodect=1 Resource_List.place=free Resource_List.select=1:ncpus=1:mpiprocs=1:pas_applications_enabled=GUI Resource_List.software=Hvtrans resource_assigned.ncpus=1 
03/07/2023 03:30:44;S;124353.ml-hpc-master01;user=grapesli group=users2 project=_pbs_project_default jobname=81_ADULT65_A_13_-8 queue=limitq ctime=1678099492 qtime=1678099492 etime=1678099492 start=1678131044 exec_host=ml-hpc-cn17/0*36 exec_vnode=(ml-hpc-cn17:ncpus=36) Resource_List.dynalic=36 Resource_List.higher=1 Resource_List.mpiprocs=36 Resource_List.ncpus=36 Resource_List.nodect=1 Resource_List.place=free Resource_List.select=1:ncpus=36:mpiprocs=36:pas_applications_enabled=Dyna:platform=P8260-48c-512G Resource_List.software=LS-Dyna resource_assigned.ncpus=36 
03/07/2023 03:31:33;Q;124449.ml-hpc-master01;user=grapesli group=users2 project=_pbs_project_default jobname=81_ADULT65_A_12_6_h3d queue=routeq ctime=1678131093 qtime=1678131093 etime=0 depend=afterany:124346.ml-hpc-master01@ml-hpc-master01 Resource_List.higher=1 Resource_List.hwlic=6000 Resource_List.hwlimit=1 Resource_List.mpiprocs=1 Resource_List.ncpus=1 Resource_List.nodect=1 Resource_List.place=free Resource_List.select=1:ncpus=1:mpiprocs=1:pas_applications_enabled=GUI Resource_List.software=Hvtrans 
03/07/2023 03:31:33;Q;124449.ml-hpc-master01;user=grapesli group=users2 project=_pbs_project_default jobname=81_ADULT65_A_12_6_h3d queue=limitq ctime=1678131093 qtime=1678131093 etime=0 depend=afterany:124346.ml-hpc-master01@ml-hpc-master01 Resource_List.higher=1 Resource_List.hwlic=6000 Resource_List.hwlimit=1 Resource_List.mpiprocs=1 Resource_List.ncpus=1 Resource_List.nodect=1 Resource_List.place=free Resource_List.select=1:ncpus=1:mpiprocs=1:pas_applications_enabled=GUI Resource_List.software=Hvtrans 
03/07/2023 03:32:22;E;124346.ml-hpc-master01;user=grapesli group=users2 project=_pbs_project_default jobname=81_ADULT65_A_12_6 queue=limitq ctime=1678099479 qtime=1678099479 etime=1678099479 start=1678125936 exec_host=ml-hpc-cn16/0*36 exec_vnode=(ml-hpc-cn16:ncpus=36) Resource_List.dynalic=36 Resource_List.higher=1 Resource_List.mpiprocs=36 Resource_List.ncpus=36 Resource_List.nodect=1 Resource_List.place=free Resource_List.select=1:ncpus=36:mpiprocs=36:pas_applications_enabled=Dyna:platform=P8260-48c-512G Resource_List.software=LS-Dyna session=195226 end=1678131142 Exit_status=0 resources_used.cpupercent=3600 resources_used.cput=51:11:54 resources_used.mem=9789412kb resources_used.ncpus=36 resources_used.vmem=25988316kb resources_used.walltime=01:26:00 run_count=1
03/07/2023 03:32:26;S;124449.ml-hpc-master01;user=grapesli group=users2 project=_pbs_project_default jobname=81_ADULT65_A_12_6_h3d queue=limitq ctime=1678131093 qtime=1678131093 etime=1678131142 start=1678131146 exec_host=ml-rtx6000-ser002/3 exec_vnode=(ml-rtx6000-ser002:ncpus=1) Resource_List.higher=1 Resource_List.hwlic=6000 Resource_List.hwlimit=1 Resource_List.mpiprocs=1 Resource_List.ncpus=1 Resource_List.nodect=1 Resource_List.place=free Resource_List.select=1:ncpus=1:mpiprocs=1:pas_applications_enabled=GUI Resource_List.software=Hvtrans resource_assigned.ncpus=1 
03/07/2023 03:32:28;S;124354.ml-hpc-master01;user=grapesli group=users2 project=_pbs_project_default jobname=81_ADULT65_A_7_0 queue=limitq ctime=1678099493 qtime=1678099493 etime=1678099493 start=1678131148 exec_host=ml-hpc-cn16/0*36 exec_vnode=(ml-hpc-cn16:ncpus=36) Resource_List.dynalic=36 Resource_List.higher=1 Resource_List.mpiprocs=36 Resource_List.ncpus=36 Resource_List.nodect=1 Resource_List.place=free Resource_List.select=1:ncpus=36:mpiprocs=36:pas_applications_enabled=Dyna:platform=P8260-48c-512G Resource_List.software=LS-Dyna resource_assigned.ncpus=36 
03/07/2023 03:34:13;E;124448.ml-hpc-master01;user=grapesli group=users2 project=_pbs_project_default jobname=81_ADULT65_A_12_7_h3d queue=limitq ctime=1678130998 qtime=1678130998 etime=1678131039 start=1678131042 exec_host=ml-rtx6000-ser002/1 exec_vnode=(ml-rtx6000-ser002:ncpus=1) Resource_List.higher=1 Resource_List.hwlic=6000 Resource_List.hwlimit=1 Resource_List.mpiprocs=1 Resource_List.ncpus=1 Resource_List.nodect=1 Resource_List.place=free Resource_List.select=1:ncpus=1:mpiprocs=1:pas_applications_enabled=GUI Resource_List.software=Hvtrans session=176646 end=1678131253 Exit_status=0 resources_used.cpupercent=119 resources_used.cput=00:03:00 resources_used.mem=341820kb resources_used.ncpus=1 resources_used.vmem=1187920kb resources_used.walltime=00:01:56 run_count=1
[...]
03/07/2023 22:03:30;S;124650.ml-hpc-master01;user=dailiangbo group=users2 project=_pbs_project_default jobname=Mona_TG1_CNCAP_SPRB_HyperStudy_003 queue=workq ctime=1678197806 qtime=1678197806 etime=1678197806 start=1678197810 exec_host=ml-hpc-cn14/0*48+ml-hpc-cn15/0*48 exec_vnode=(ml-hpc-cn14:ncpus=48)+(ml-hpc-cn15:ncpus=48) Resource_List.dynalic=96 Resource_List.higher=1 Resource_List.mpiprocs=96 Resource_List.ncpus=96 Resource_List.nodect=2 Resource_List.place=free Resource_List.select=2:ncpus=48:mpiprocs=48:pas_applications_enabled=Dyna:platform=P8260-48c-512G Resource_List.software=LS-Dyna Resource_List.walltime=24:00:00 resource_assigned.ncpus=96 
03/07/2023 22:03:31;Q;124651.ml-hpc-master01;user=dailiangbo group=users2 project=_pbs_project_default jobname=Mona_TG1_CNCAP_SPRB_HyperStudy_003 queue=routeq ctime=1678197811 qtime=1678197811 etime=0 Resource_List.dynalic=96 Resource_List.higher=1 Resource_List.mpiprocs=96 Resource_List.ncpus=96 Resource_List.nodect=2 Resource_List.place=free Resource_List.select=2:ncpus=48:mpiprocs=48:pas_applications_enabled=Dyna:platform=P8260-48c-512G Resource_List.software=LS-Dyna Resource_List.walltime=24:00:00 
03/07/2023 22:03:31;Q;124651.ml-hpc-master01;user=dailiangbo group=users2 project=_pbs_project_default jobname=Mona_TG1_CNCAP_SPRB_HyperStudy_003 queue=workq ctime=1678197811 qtime=1678197811 etime=1678197811 Resource_List.dynalic=96 Resource_List.higher=1 Resource_List.mpiprocs=96 Resource_List.ncpus=96 Resource_List.nodect=2 Resource_List.place=free Resource_List.select=2:ncpus=48:mpiprocs=48:pas_applications_enabled=Dyna:platform=P8260-48c-512G Resource_List.software=LS-Dyna Resource_List.walltime=24:00:00 
03/07/2023 22:03:34;S;124651.ml-hpc-master01;user=dailiangbo group=users2 project=_pbs_project_default jobname=Mona_TG1_CNCAP_SPRB_HyperStudy_003 queue=workq ctime=1678197811 qtime=1678197811 etime=1678197811 start=1678197814 exec_host=ml-hpc-cn16/0*48+ml-hpc-cn17/0*48 exec_vnode=(ml-hpc-cn16:ncpus=48)+(ml-hpc-cn17:ncpus=48) Resource_List.dynalic=96 Resource_List.higher=1 Resource_List.mpiprocs=96 Resource_List.ncpus=96 Resource_List.nodect=2 Resource_List.place=free Resource_List.select=2:ncpus=48:mpiprocs=48:pas_applications_enabled=Dyna:platform=P8260-48c-512G Resource_List.software=LS-Dyna Resource_List.walltime=24:00:00 resource_assigned.ncpus=96 
03/07/2023 22:37:20;D;123745.ml-hpc-master01;requestor=dailiangbo@ml-hpc-master01
03/07/2023 22:37:31;D;123745.ml-hpc-master01;requestor=dailiangbo@ml-hpc-master01
03/07/2023 22:37:34;E;123745.ml-hpc-master01;user=snaillitao group=users2 project=_pbs_project_default jobname=num23 queue=workq ctime=1677832392 qtime=1677832392 etime=1677832392 start=1677832397 exec_host=ml-hpc-cn46/0*48+ml-hpc-cn47/0*48+ml-hpc-cn48/0*48+ml-hpc-cn50/0*48+ml-hpc-cn51/0*48+ml-hpc-cn52/0*48+ml-hpc-cn53/0*48+ml-hpc-cn54/0*48+ml-hpc-cn57/0*48+ml-hpc-cn58/0*48+ml-hpc-cn59/0*48+ml-hpc-cn60/0*48 exec_vnode=(ml-hpc-cn46:ncpus=48)+(ml-hpc-cn47:ncpus=48)+(ml-hpc-cn48:ncpus=48)+(ml-hpc-cn50:ncpus=48)+(ml-hpc-cn51:ncpus=48)+(ml-hpc-cn52:ncpus=48)+(ml-hpc-cn53:ncpus=48)+(ml-hpc-cn54:ncpus=48)+(ml-hpc-cn57:ncpus=48)+(ml-hpc-cn58:ncpus=48)+(ml-hpc-cn59:ncpus=48)+(ml-hpc-cn60:ncpus=48) Resource_List.higher=1 Resource_List.mpiprocs=576 Resource_List.ncpus=576 Resource_List.nodect=12 Resource_List.place=scatter Resource_List.select=12:ncpus=48:mpiprocs=48:pas_applications_enabled=Starccm:platform=P8260-48c-512G Resource_List.software=Starccm-AG-gui session=179140 end=1678199854 Exit_status=271 resources_used.cpupercent=4801 resources_used.cput=4850:07:00 resources_used.mem=65830712kb resources_used.ncpus=576 resources_used.vmem=432517800kb resources_used.walltime=102:04:14 run_count=1
03/07/2023 22:46:14;Q;124652.ml-hpc-master01;user=dailiangbo group=users2 project=_pbs_project_default jobname=Mona_TG1_CNCAP_SPRB_HyperStudy_003 queue=routeq ctime=1678200374 qtime=1678200374 etime=0 Resource_List.dynalic=96 Resource_List.higher=1 Resource_List.mpiprocs=96 Resource_List.ncpus=96 Resource_List.nodect=2 Resource_List.place=free Resource_List.select=2:ncpus=48:mpiprocs=48:pas_applications_enabled=Dyna:platform=P8260-48c-512G Resource_List.software=LS-Dyna Resource_List.walltime=24:00:00 
03/07/2023 22:46:14;Q;124652.ml-hpc-master01;user=dailiangbo group=users2 project=_pbs_project_default jobname=Mona_TG1_CNCAP_SPRB_HyperStudy_003 queue=workq ctime=1678200374 qtime=1678200374 etime=1678200374 Resource_List.dynalic=96 Resource_List.higher=1 Resource_List.mpiprocs=96 Resource_List.ncpus=96 Resource_List.nodect=2 Resource_List.place=free Resource_List.select=2:ncpus=48:mpiprocs=48:pas_applications_enabled=Dyna:platform=P8260-48c-512G Resource_List.software=LS-Dyna Resource_List.walltime=24:00:00 
03/07/2023 22:46:18;S;124652.ml-hpc-master01;user=dailiangbo group=users2 project=_pbs_project_default jobname=Mona_TG1_CNCAP_SPRB_HyperStudy_003 queue=workq ctime=1678200374 qtime=1678200374 etime=1678200374 start=1678200378 exec_host=ml-hpc-cn18/0*48+ml-hpc-cn57/0*48 exec_vnode=(ml-hpc-cn18:ncpus=48)+(ml-hpc-cn57:ncpus=48) Resource_List.dynalic=96 Resource_List.higher=1 Resource_List.mpiprocs=96 Resource_List.ncpus=96 Resource_List.nodect=2 Resource_List.place=free Resource_List.select=2:ncpus=48:mpiprocs=48:pas_applications_enabled=Dyna:platform=P8260-48c-512G Resource_List.software=LS-Dyna Resource_List.walltime=24:00:00 resource_assigned.ncpus=96 
03/07/2023 22:46:18;Q;124653.ml-hpc-master01;user=dailiangbo group=users2 project=_pbs_project_default jobname=Mona_TG1_CNCAP_SPRB_HyperStudy_003 queue=routeq ctime=1678200378 qtime=1678200378 etime=0 Resource_List.dynalic=96 Resource_List.higher=1 Resource_List.mpiprocs=96 Resource_List.ncpus=96 Resource_List.nodect=2 Resource_List.place=free Resource_List.select=2:ncpus=48:mpiprocs=48:pas_applications_enabled=Dyna:platform=P8260-48c-512G Resource_List.software=LS-Dyna Resource_List.walltime=24:00:00 
03/07/2023 22:46:18;Q;124653.ml-hpc-master01;user=dailiangbo group=users2 project=_pbs_project_default jobname=Mona_TG1_CNCAP_SPRB_HyperStudy_003 queue=workq ctime=1678200378 qtime=1678200378 etime=1678200378 Resource_List.dynalic=96 Resource_List.higher=1 Resource_List.mpiprocs=96 Resource_List.ncpus=96 Resource_List.nodect=2 Resource_List.place=free Resource_List.select=2:ncpus=48:mpiprocs=48:pas_applications_enabled=Dyna:platform=P8260-48c-512G Resource_List.software=LS-Dyna Resource_List.walltime=24:00:00 
03/07/2023 22:46:22;S;124653.ml-hpc-master01;user=dailiangbo group=users2 project=_pbs_project_default jobname=Mona_TG1_CNCAP_SPRB_HyperStudy_003 queue=workq ctime=1678200378 qtime=1678200378 etime=1678200378 start=1678200382 exec_host=ml-hpc-cn58/0*48+ml-hpc-cn59/0*48 exec_vnode=(ml-hpc-cn58:ncpus=48)+(ml-hpc-cn59:ncpus=48) Resource_List.dynalic=96 Resource_List.higher=1 Resource_List.mpiprocs=96 Resource_List.ncpus=96 Resource_List.nodect=2 Resource_List.place=free Resource_List.select=2:ncpus=48:mpiprocs=48:pas_applications_enabled=Dyna:platform=P8260-48c-512G Resource_List.software=LS-Dyna Resource_List.walltime=24:00:00 resource_assigned.ncpus=96 
03/07/2023 22:46:23;Q;124654.ml-hpc-master01;user=dailiangbo group=users2 project=_pbs_project_default jobname=Mona_TG1_CNCAP_SPRB_HyperStudy_003 queue=routeq ctime=1678200383 qtime=1678200383 etime=0 Resource_List.dynalic=96 Resource_List.higher=1 Resource_List.mpiprocs=96 Resource_List.ncpus=96 Resource_List.nodect=2 Resource_List.place=free Resource_List.select=2:ncpus=48:mpiprocs=48:pas_applications_enabled=Dyna:platform=P8260-48c-512G Resource_List.software=LS-Dyna Resource_List.walltime=24:00:00 
03/07/2023 22:46:23;Q;124654.ml-hpc-master01;user=dailiangbo group=users2 project=_pbs_project_default jobname=Mona_TG1_CNCAP_SPRB_HyperStudy_003 queue=workq ctime=1678200383 qtime=1678200383 etime=1678200383 Resource_List.dynalic=96 Resource_List.higher=1 Resource_List.mpiprocs=96 Resource_List.ncpus=96 Resource_List.nodect=2 Resource_List.place=free Resource_List.select=2:ncpus=48:mpiprocs=48:pas_applications_enabled=Dyna:platform=P8260-48c-512G Resource_List.software=LS-Dyna Resource_List.walltime=24:00:00 
03/07/2023 22:46:27;Q;124655.ml-hpc-master01;user=dailiangbo group=users2 project=_pbs_project_default jobname=Mona_TG1_CNCAP_SPRB_HyperStudy_003 queue=routeq ctime=1678200387 qtime=1678200387 etime=0 Resource_List.dynalic=96 Resource_List.higher=1 Resource_List.mpiprocs=96 Resource_List.ncpus=96 Resource_List.nodect=2 Resource_List.place=free Resource_List.select=2:ncpus=48:mpiprocs=48:pas_applications_enabled=Dyna:platform=P8260-48c-512G Resource_List.software=LS-Dyna Resource_List.walltime=24:00:00 
03/07/2023 22:46:27;Q;124655.ml-hpc-master01;user=dailiangbo group=users2 project=_pbs_project_default jobname=Mona_TG1_CNCAP_SPRB_HyperStudy_003 queue=workq ctime=1678200387 qtime=1678200387 etime=1678200387 Resource_List.dynalic=96 Resource_List.higher=1 Resource_List.mpiprocs=96 Resource_List.ncpus=96 Resource_List.nodect=2 Resource_List.place=free Resource_List.select=2:ncpus=48:mpiprocs=48:pas_applications_enabled=Dyna:platform=P8260-48c-512G Resource_List.software=LS-Dyna Resource_List.walltime=24:00:00 
03/07/2023 22:46:31;Q;124656.ml-hpc-master01;user=dailiangbo group=users2 project=_pbs_project_default jobname=Mona_TG1_CNCAP_SPRB_HyperStudy_003 queue=routeq ctime=1678200391 qtime=1678200391 etime=0 Resource_List.dynalic=96 Resource_List.higher=1 Resource_List.mpiprocs=96 Resource_List.ncpus=96 Resource_List.nodect=2 Resource_List.place=free Resource_List.select=2:ncpus=48:mpiprocs=48:pas_applications_enabled=Dyna:platform=P8260-48c-512G Resource_List.software=LS-Dyna Resource_List.walltime=24:00:00 
03/07/2023 22:46:31;Q;124656.ml-hpc-master01;user=dailiangbo group=users2 project=_pbs_project_default jobname=Mona_TG1_CNCAP_SPRB_HyperStudy_003 queue=workq ctime=1678200391 qtime=1678200391 etime=1678200391 Resource_List.dynalic=96 Resource_List.higher=1 Resource_List.mpiprocs=96 Resource_List.ncpus=96 Resource_List.nodect=2 Resource_List.place=free Resource_List.select=2:ncpus=48:mpiprocs=48:pas_applications_enabled=Dyna:platform=P8260-48c-512G Resource_List.software=LS-Dyna Resource_List.walltime=24:00:00 
03/07/2023 22:46:36;Q;124657.ml-hpc-master01;user=dailiangbo group=users2 project=_pbs_project_default jobname=Mona_TG1_CNCAP_SPRB_HyperStudy_003 queue=routeq ctime=1678200396 qtime=1678200396 etime=0 Resource_List.dynalic=96 Resource_List.higher=1 Resource_List.mpiprocs=96 Resource_List.ncpus=96 Resource_List.nodect=2 Resource_List.place=free Resource_List.select=2:ncpus=48:mpiprocs=48:pas_applications_enabled=Dyna:platform=P8260-48c-512G Resource_List.software=LS-Dyna Resource_List.walltime=24:00:00 
03/07/2023 22:46:36;Q;124657.ml-hpc-master01;user=dailiangbo group=users2 project=_pbs_project_default jobname=Mona_TG1_CNCAP_SPRB_HyperStudy_003 queue=workq ctime=1678200396 qtime=1678200396 etime=1678200396 Resource_List.dynalic=96 Resource_List.higher=1 Resource_List.mpiprocs=96 Resource_List.ncpus=96 Resource_List.nodect=2 Resource_List.place=free Resource_List.select=2:ncpus=48:mpiprocs=48:pas_applications_enabled=Dyna:platform=P8260-48c-512G Resource_List.software=LS-Dyna Resource_List.walltime=24:00:00 
03/07/2023 22:46:40;Q;124658.ml-hpc-master01;user=dailiangbo group=users2 project=_pbs_project_default jobname=Mona_TG1_CNCAP_SPRB_HyperStudy_003 queue=routeq ctime=1678200400 qtime=1678200400 etime=0 Resource_List.dynalic=96 Resource_List.higher=1 Resource_List.mpiprocs=96 Resource_List.ncpus=96 Resource_List.nodect=2 Resource_List.place=free Resource_List.select=2:ncpus=48:mpiprocs=48:pas_applications_enabled=Dyna:platform=P8260-48c-512G Resource_List.software=LS-Dyna Resource_List.walltime=24:00:00 
03/07/2023 22:46:40;Q;124658.ml-hpc-master01;user=dailiangbo group=users2 project=_pbs_project_default jobname=Mona_TG1_CNCAP_SPRB_HyperStudy_003 queue=workq ctime=1678200400 qtime=1678200400 etime=1678200400 Resource_List.dynalic=96 Resource_List.higher=1 Resource_List.mpiprocs=96 Resource_List.ncpus=96 Resource_List.nodect=2 Resource_List.place=free Resource_List.select=2:ncpus=48:mpiprocs=48:pas_applications_enabled=Dyna:platform=P8260-48c-512G Resource_List.software=LS-Dyna Resource_List.walltime=24:00:00 
03/07/2023 22:46:44;Q;124659.ml-hpc-master01;user=dailiangbo group=users2 project=_pbs_project_default jobname=Mona_TG1_CNCAP_SPRB_HyperStudy_003 queue=routeq ctime=1678200404 qtime=1678200404 etime=0 Resource_List.dynalic=96 Resource_List.higher=1 Resource_List.mpiprocs=96 Resource_List.ncpus=96 Resource_List.nodect=2 Resource_List.place=free Resource_List.select=2:ncpus=48:mpiprocs=48:pas_applications_enabled=Dyna:platform=P8260-48c-512G Resource_List.software=LS-Dyna Resource_List.walltime=24:00:00 
03/07/2023 22:46:44;Q;124659.ml-hpc-master01;user=dailiangbo group=users2 project=_pbs_project_default jobname=Mona_TG1_CNCAP_SPRB_HyperStudy_003 queue=workq ctime=1678200404 qtime=1678200404 etime=1678200404 Resource_List.dynalic=96 Resource_List.higher=1 Resource_List.mpiprocs=96 Resource_List.ncpus=96 Resource_List.nodect=2 Resource_List.place=free Resource_List.select=2:ncpus=48:mpiprocs=48:pas_applications_enabled=Dyna:platform=P8260-48c-512G Resource_List.software=LS-Dyna Resource_List.walltime=24:00:00 
03/07/2023 23:00:00;L;license;floating license hour:102 day:102 month:102 max:102
03/07/2023 23:02:03;Q;124660.ml-hpc-master01;user=markhaoyi group=users2 project=_pbs_project_default jobname=SOBL_Rear_h3d queue=routeq ctime=1678201323 qtime=1678201323 etime=0 depend=afterany:124515.ml-hpc-master01@ml-hpc-master01 Resource_List.higher=1 Resource_List.hwlic=6000 Resource_List.hwlimit=1 Resource_List.mpiprocs=1 Resource_List.ncpus=1 Resource_List.nodect=1 Resource_List.place=free Resource_List.select=1:ncpus=1:mpiprocs=1:pas_applications_enabled=GUI Resource_List.software=Hvtrans 
03/07/2023 23:02:03;Q;124660.ml-hpc-master01;user=markhaoyi group=users2 project=_pbs_project_default jobname=SOBL_Rear_h3d queue=workq ctime=1678201323 qtime=1678201323 etime=0 depend=afterany:124515.ml-hpc-master01@ml-hpc-master01 Resource_List.higher=1 Resource_List.hwlic=6000 Resource_List.hwlimit=1 Resource_List.mpiprocs=1 Resource_List.ncpus=1 Resource_List.nodect=1 Resource_List.place=free Resource_List.select=1:ncpus=1:mpiprocs=1:pas_applications_enabled=GUI Resource_List.software=Hvtrans 
03/07/2023 23:04:12;E;124515.ml-hpc-master01;user=markhaoyi group=users2 project=_pbs_project_default jobname=SOBL_Rear queue=workq ctime=1678158828 qtime=1678158828 etime=1678158828 start=1678158854 exec_host=ml-hpc-hfcn08/0*36 exec_vnode=(ml-hpc-hfcn08:ncpus=36) Resource_List.dynalic=36 Resource_List.higher=1 Resource_List.mpiprocs=36 Resource_List.ncpus=36 Resource_List.nodect=1 Resource_List.place=free Resource_List.select=1:ncpus=36:mpiprocs=36:pas_applications_enabled=Dyna:platform=G6254-36c-384G Resource_List.software=LS-Dyna session=144297 end=1678201452 Exit_status=0 resources_used.cpupercent=3594 resources_used.cput=421:39:23 resources_used.mem=9398132kb resources_used.ncpus=36 resources_used.vmem=29044120kb resources_used.walltime=11:47:52 run_count=1
03/07/2023 23:04:15;S;124660.ml-hpc-master01;user=markhaoyi group=users2 project=_pbs_project_default jobname=SOBL_Rear_h3d queue=workq ctime=1678201323 qtime=1678201323 etime=1678201452 start=1678201455 exec_host=ml-rtx6000-ser002/1 exec_vnode=(ml-rtx6000-ser002:ncpus=1) Resource_List.higher=1 Resource_List.hwlic=6000 Resource_List.hwlimit=1 Resource_List.mpiprocs=1 Resource_List.ncpus=1 Resource_List.nodect=1 Resource_List.place=free Resource_List.select=1:ncpus=1:mpiprocs=1:pas_applications_enabled=GUI Resource_List.software=Hvtrans resource_assigned.ncpus=1 
03/07/2023 23:10:35;E;124660.ml-hpc-master01;user=markhaoyi group=users2 project=_pbs_project_default jobname=SOBL_Rear_h3d queue=workq ctime=1678201323 qtime=1678201323 etime=1678201452 start=1678201455 exec_host=ml-rtx6000-ser002/1 exec_vnode=(ml-rtx6000-ser002:ncpus=1) Resource_List.higher=1 Resource_List.hwlic=6000 Resource_List.hwlimit=1 Resource_List.mpiprocs=1 Resource_List.ncpus=1 Resource_List.nodect=1 Resource_List.place=free Resource_List.select=1:ncpus=1:mpiprocs=1:pas_applications_enabled=GUI Resource_List.software=Hvtrans session=81292 end=1678201835 Exit_status=0 resources_used.cpupercent=141 resources_used.cput=00:07:11 resources_used.mem=263244kb resources_used.ncpus=1 resources_used.vmem=1117888kb resources_used.walltime=00:04:44 run_count=1
03/07/2023 23:18:04;Q;124661.ml-hpc-master01;user=bilizhi group=users2 project=_pbs_project_default jobname=Mona_TG2_CNCAP_SPRB_103_h3d queue=routeq ctime=1678202284 qtime=1678202284 etime=0 depend=afterany:124559.ml-hpc-master01@ml-hpc-master01 Resource_List.higher=1 Resource_List.hwlic=6000 Resource_List.hwlimit=1 Resource_List.mpiprocs=1 Resource_List.ncpus=1 Resource_List.nodect=1 Resource_List.place=free Resource_List.select=1:ncpus=1:mpiprocs=1:pas_applications_enabled=GUI Resource_List.software=Hvtrans 
03/07/2023 23:18:04;Q;124661.ml-hpc-master01;user=bilizhi group=users2 project=_pbs_project_default jobname=Mona_TG2_CNCAP_SPRB_103_h3d queue=workq ctime=1678202284 qtime=1678202284 etime=0 depend=afterany:124559.ml-hpc-master01@ml-hpc-master01 Resource_List.higher=1 Resource_List.hwlic=6000 Resource_List.hwlimit=1 Resource_List.mpiprocs=1 Resource_List.ncpus=1 Resource_List.nodect=1 Resource_List.place=free Resource_List.select=1:ncpus=1:mpiprocs=1:pas_applications_enabled=GUI Resource_List.software=Hvtrans 
03/07/2023 23:32:22;E;124559.ml-hpc-master01;user=bilizhi group=users2 project=_pbs_project_default jobname=Mona_TG2_CNCAP_SPRB_103 queue=workq ctime=1678168186 qtime=1678168186 etime=1678168186 start=1678168191 exec_host=ml-hpc-hfcn03/0*36 exec_vnode=(ml-hpc-hfcn03:ncpus=36) Resource_List.dynalic=36 Resource_List.higher=1 Resource_List.mpiprocs=36 Resource_List.ncpus=36 Resource_List.nodect=1 Resource_List.place=free Resource_List.select=1:ncpus=36:mpiprocs=36:pas_applications_enabled=Dyna:platform=G6254-36c-384G Resource_List.software=LS-Dyna session=184922 end=1678203142 Exit_status=0 resources_used.cpupercent=3589 resources_used.cput=338:20:22 resources_used.mem=20125280kb resources_used.ncpus=36 resources_used.vmem=45095944kb resources_used.walltime=09:28:20 run_count=1
03/07/2023 23:32:26;S;124661.ml-hpc-master01;user=bilizhi group=users2 project=_pbs_project_default jobname=Mona_TG2_CNCAP_SPRB_103_h3d queue=workq ctime=1678202284 qtime=1678202284 etime=1678203142 start=1678203146 exec_host=ml-rtx6000-ser002/1 exec_vnode=(ml-rtx6000-ser002:ncpus=1) Resource_List.higher=1 Resource_List.hwlic=6000 Resource_List.hwlimit=1 Resource_List.mpiprocs=1 Resource_List.ncpus=1 Resource_List.nodect=1 Resource_List.place=free Resource_List.select=1:ncpus=1:mpiprocs=1:pas_applications_enabled=GUI Resource_List.software=Hvtrans resource_assigned.ncpus=1 
03/07/2023 23:42:38;E;124661.ml-hpc-master01;user=bilizhi group=users2 project=_pbs_project_default jobname=Mona_TG2_CNCAP_SPRB_103_h3d queue=workq ctime=1678202284 qtime=1678202284 etime=1678203142 start=1678203146 exec_host=ml-rtx6000-ser002/1 exec_vnode=(ml-rtx6000-ser002:ncpus=1) Resource_List.higher=1 Resource_List.hwlic=6000 Resource_List.hwlimit=1 Resource_List.mpiprocs=1 Resource_List.ncpus=1 Resource_List.nodect=1 Resource_List.place=free Resource_List.select=1:ncpus=1:mpiprocs=1:pas_applications_enabled=GUI Resource_List.software=Hvtrans session=175872 end=1678203758 Exit_status=0 resources_used.cpupercent=153 resources_used.cput=00:11:38 resources_used.mem=662868kb resources_used.ncpus=1 resources_used.vmem=1538128kb resources_used.walltime=00:08:37 run_count=1
