03/06/2023 00:00:00;L;license;floating license hour:102 day:102 month:102 max:102
03/06/2023 01:00:00;L;license;floating license hour:102 day:102 month:102 max:102
03/06/2023 01:31:59;Q;124231.ml-hpc-master01;user=bilizhi group=users2 project=_pbs_project_default jobname=000_Main_C009_h3d queue=routeq ctime=1678037519 qtime=1678037519 etime=0 depend=afterany:124228.ml-hpc-master01@ml-hpc-master01 Resource_List.higher=1 Resource_List.hwlic=6000 Resource_List.hwlimit=1 Resource_List.mpiprocs=1 Resource_List.ncpus=1 Resource_List.nodect=1 Resource_List.place=free Resource_List.select=1:ncpus=1:mpiprocs=1:pas_applications_enabled=GUI Resource_List.software=Hvtrans 
03/06/2023 01:31:59;Q;124231.ml-hpc-master01;user=bilizhi group=users2 project=_pbs_project_default jobname=000_Main_C009_h3d queue=workq ctime=1678037519 qtime=1678037519 etime=0 depend=afterany:124228.ml-hpc-master01@ml-hpc-master01 Resource_List.higher=1 Resource_List.hwlic=6000 Resource_List.hwlimit=1 Resource_List.mpiprocs=1 Resource_List.ncpus=1 Resource_List.nodect=1 Resource_List.place=free Resource_List.select=1:ncpus=1:mpiprocs=1:pas_applications_enabled=GUI Resource_List.software=Hvtrans 
03/06/2023 01:32:21;E;124228.ml-hpc-master01;user=bilizhi group=users2 project=_pbs_project_default jobname=000_Main_C009 queue=workq ctime=1678027574 qtime=1678027574 etime=1678027574 start=1678027581 exec_host=ml-hpc-hfcn01/0*36+ml-hpc-hfcn02/0*36 exec_vnode=(ml-hpc-hfcn01:ncpus=36)+(ml-hpc-hfcn02:ncpus=36) Resource_List.dynalic=72 Resource_List.higher=1 Resource_List.mpiprocs=72 Resource_List.ncpus=72 Resource_List.nodect=2 Resource_List.place=free Resource_List.select=2:ncpus=36:mpiprocs=36:pas_applications_enabled=Dyna:platform=G6254-36c-384G Resource_List.software=LS-Dyna session=145759 end=1678037541 Exit_status=0 resources_used.cpupercent=3587 resources_used.cput=98:37:25 resources_used.mem=21836556kb resources_used.ncpus=72 resources_used.vmem=49250920kb resources_used.walltime=02:45:43 run_count=1
03/06/2023 01:32:24;S;124231.ml-hpc-master01;user=bilizhi group=users2 project=_pbs_project_default jobname=000_Main_C009_h3d queue=workq ctime=1678037519 qtime=1678037519 etime=1678037541 start=1678037544 exec_host=ml-rtx6000-ser002/1 exec_vnode=(ml-rtx6000-ser002:ncpus=1) Resource_List.higher=1 Resource_List.hwlic=6000 Resource_List.hwlimit=1 Resource_List.mpiprocs=1 Resource_List.ncpus=1 Resource_List.nodect=1 Resource_List.place=free Resource_List.select=1:ncpus=1:mpiprocs=1:pas_applications_enabled=GUI Resource_List.software=Hvtrans resource_assigned.ncpus=1 
03/06/2023 01:35:06;Q;124232.ml-hpc-master01;user=bilizhi group=users2 project=_pbs_project_default jobname=000_Main_C010_h3d queue=routeq ctime=1678037706 qtime=1678037706 etime=0 depend=afterany:124230.ml-hpc-master01@ml-hpc-master01 Resource_List.higher=1 Resource_List.hwlic=6000 Resource_List.hwlimit=1 Resource_List.mpiprocs=1 Resource_List.ncpus=1 Resource_List.nodect=1 Resource_List.place=free Resource_List.select=1:ncpus=1:mpiprocs=1:pas_applications_enabled=GUI Resource_List.software=Hvtrans 
03/06/2023 01:35:06;Q;124232.ml-hpc-master01;user=bilizhi group=users2 project=_pbs_project_default jobname=000_Main_C010_h3d queue=workq ctime=1678037706 qtime=1678037706 etime=0 depend=afterany:124230.ml-hpc-master01@ml-hpc-master01 Resource_List.higher=1 Resource_List.hwlic=6000 Resource_List.hwlimit=1 Resource_List.mpiprocs=1 Resource_List.ncpus=1 Resource_List.nodect=1 Resource_List.place=free Resource_List.select=1:ncpus=1:mpiprocs=1:pas_applications_enabled=GUI Resource_List.software=Hvtrans 
03/06/2023 01:35:27;E;124230.ml-hpc-master01;user=bilizhi group=users2 project=_pbs_project_default jobname=000_Main_C010 queue=workq ctime=1678027819 qtime=1678027819 etime=1678027819 start=1678027824 exec_host=ml-hpc-hfcn03/0*36+ml-hpc-hfcn04/0*36 exec_vnode=(ml-hpc-hfcn03:ncpus=36)+(ml-hpc-hfcn04:ncpus=36) Resource_List.dynalic=72 Resource_List.higher=1 Resource_List.mpiprocs=72 Resource_List.ncpus=72 Resource_List.nodect=2 Resource_List.place=free Resource_List.select=2:ncpus=36:mpiprocs=36:pas_applications_enabled=Dyna:platform=G6254-36c-384G Resource_List.software=LS-Dyna session=53383 end=1678037727 Exit_status=0 resources_used.cpupercent=3585 resources_used.cput=98:00:39 resources_used.mem=21866584kb resources_used.ncpus=72 resources_used.vmem=49038668kb resources_used.walltime=02:44:47 run_count=1
03/06/2023 01:35:30;S;124232.ml-hpc-master01;user=bilizhi group=users2 project=_pbs_project_default jobname=000_Main_C010_h3d queue=workq ctime=1678037706 qtime=1678037706 etime=1678037727 start=1678037730 exec_host=ml-rtx6000-ser002/3 exec_vnode=(ml-rtx6000-ser002:ncpus=1) Resource_List.higher=1 Resource_List.hwlic=6000 Resource_List.hwlimit=1 Resource_List.mpiprocs=1 Resource_List.ncpus=1 Resource_List.nodect=1 Resource_List.place=free Resource_List.select=1:ncpus=1:mpiprocs=1:pas_applications_enabled=GUI Resource_List.software=Hvtrans resource_assigned.ncpus=1 
03/06/2023 01:38:30;E;124231.ml-hpc-master01;user=bilizhi group=users2 project=_pbs_project_default jobname=000_Main_C009_h3d queue=workq ctime=1678037519 qtime=1678037519 etime=1678037541 start=1678037544 exec_host=ml-rtx6000-ser002/1 exec_vnode=(ml-rtx6000-ser002:ncpus=1) Resource_List.higher=1 Resource_List.hwlic=6000 Resource_List.hwlimit=1 Resource_List.mpiprocs=1 Resource_List.ncpus=1 Resource_List.nodect=1 Resource_List.place=free Resource_List.select=1:ncpus=1:mpiprocs=1:pas_applications_enabled=GUI Resource_List.software=Hvtrans session=62548 end=1678037910 Exit_status=0 resources_used.cpupercent=135 resources_used.cput=00:06:49 resources_used.mem=534592kb resources_used.ncpus=1 resources_used.vmem=1362688kb resources_used.walltime=00:04:31 run_count=1
03/06/2023 01:41:39;E;124232.ml-hpc-master01;user=bilizhi group=users2 project=_pbs_project_default jobname=000_Main_C010_h3d queue=workq ctime=1678037706 qtime=1678037706 etime=1678037727 start=1678037730 exec_host=ml-rtx6000-ser002/3 exec_vnode=(ml-rtx6000-ser002:ncpus=1) Resource_List.higher=1 Resource_List.hwlic=6000 Resource_List.hwlimit=1 Resource_List.mpiprocs=1 Resource_List.ncpus=1 Resource_List.nodect=1 Resource_List.place=free Resource_List.select=1:ncpus=1:mpiprocs=1:pas_applications_enabled=GUI Resource_List.software=Hvtrans session=72194 end=1678038099 Exit_status=0 resources_used.cpupercent=131 resources_used.cput=00:06:18 resources_used.mem=518748kb resources_used.ncpus=1 resources_used.vmem=1354780kb resources_used.walltime=00:04:34 run_count=1
03/06/2023 02:00:00;L;license;floating license hour:102 day:102 month:102 max:102
03/06/2023 03:00:00;L;license;floating license hour:102 day:102 month:102 max:102
03/06/2023 04:00:00;L;license;floating license hour:102 day:102 month:102 max:102
03/06/2023 05:00:00;L;license;floating license hour:102 day:102 month:102 max:102
03/06/2023 06:00:00;L;license;floating license hour:102 day:102 month:102 max:102
03/06/2023 07:00:00;L;license;floating license hour:102 day:102 month:102 max:102
03/06/2023 08:00:00;L;license;floating license hour:102 day:102 month:102 max:102
03/06/2023 09:00:00;L;license;floating license hour:102 day:102 month:102 max:102
03/06/2023 09:52:55;Q;124233.ml-hpc-master01;user=xiaoqinghua group=users2 project=_pbs_project_default jobname=Mona_TG2_CIASI_SOB_001_Crachfem_R_CASE12 queue=routeq ctime=1678067575 qtime=1678067575 etime=0 Resource_List.dynalic=108 Resource_List.higher=1 Resource_List.matfemlic=108 Resource_List.mpiprocs=108 Resource_List.ncpus=108 Resource_List.nodect=3 Resource_List.place=free Resource_List.select=3:ncpus=36:mpiprocs=36:pas_applications_enabled=Dyna:platform=G6254-36c-384G Resource_List.software=LS-Dyna 
03/06/2023 09:52:55;Q;124233.ml-hpc-master01;user=xiaoqinghua group=users2 project=_pbs_project_default jobname=Mona_TG2_CIASI_SOB_001_Crachfem_R_CASE12 queue=workq ctime=1678067575 qtime=1678067575 etime=1678067575 Resource_List.dynalic=108 Resource_List.higher=1 Resource_List.matfemlic=108 Resource_List.mpiprocs=108 Resource_List.ncpus=108 Resource_List.nodect=3 Resource_List.place=free Resource_List.select=3:ncpus=36:mpiprocs=36:pas_applications_enabled=Dyna:platform=G6254-36c-384G Resource_List.software=LS-Dyna 
03/06/2023 09:53:00;S;124233.ml-hpc-master01;user=xiaoqinghua group=users2 project=_pbs_project_default jobname=Mona_TG2_CIASI_SOB_001_Crachfem_R_CASE12 queue=workq ctime=1678067575 qtime=1678067575 etime=1678067575 start=1678067580 exec_host=ml-hpc-hfcn01/0*36+ml-hpc-hfcn02/0*36+ml-hpc-hfcn03/0*36 exec_vnode=(ml-hpc-hfcn01:ncpus=36)+(ml-hpc-hfcn02:ncpus=36)+(ml-hpc-hfcn03:ncpus=36) Resource_List.dynalic=108 Resource_List.higher=1 Resource_List.matfemlic=108 Resource_List.mpiprocs=108 Resource_List.ncpus=108 Resource_List.nodect=3 Resource_List.place=free Resource_List.select=3:ncpus=36:mpiprocs=36:pas_applications_enabled=Dyna:platform=G6254-36c-384G Resource_List.software=LS-Dyna resource_assigned.ncpus=108 
03/06/2023 09:53:09;Q;124234.ml-hpc-master01;user=xiaoqinghua group=users2 project=_pbs_project_default jobname=Mona_TG2_CIASI_SOB_001_Crachfem_R_CASE13 queue=routeq ctime=1678067589 qtime=1678067589 etime=0 Resource_List.dynalic=108 Resource_List.higher=1 Resource_List.matfemlic=108 Resource_List.mpiprocs=108 Resource_List.ncpus=108 Resource_List.nodect=3 Resource_List.place=free Resource_List.select=3:ncpus=36:mpiprocs=36:pas_applications_enabled=Dyna:platform=G6254-36c-384G Resource_List.software=LS-Dyna 
03/06/2023 09:53:09;Q;124234.ml-hpc-master01;user=xiaoqinghua group=users2 project=_pbs_project_default jobname=Mona_TG2_CIASI_SOB_001_Crachfem_R_CASE13 queue=workq ctime=1678067589 qtime=1678067589 etime=1678067589 Resource_List.dynalic=108 Resource_List.higher=1 Resource_List.matfemlic=108 Resource_List.mpiprocs=108 Resource_List.ncpus=108 Resource_List.nodect=3 Resource_List.place=free Resource_List.select=3:ncpus=36:mpiprocs=36:pas_applications_enabled=Dyna:platform=G6254-36c-384G Resource_List.software=LS-Dyna 
03/06/2023 09:53:14;S;124234.ml-hpc-master01;user=xiaoqinghua group=users2 project=_pbs_project_default jobname=Mona_TG2_CIASI_SOB_001_Crachfem_R_CASE13 queue=workq ctime=1678067589 qtime=1678067589 etime=1678067589 start=1678067594 exec_host=ml-hpc-hfcn04/0*36+ml-hpc-hfcn05/0*36+ml-hpc-hfcn06/0*36 exec_vnode=(ml-hpc-hfcn04:ncpus=36)+(ml-hpc-hfcn05:ncpus=36)+(ml-hpc-hfcn06:ncpus=36) Resource_List.dynalic=108 Resource_List.higher=1 Resource_List.matfemlic=108 Resource_List.mpiprocs=108 Resource_List.ncpus=108 Resource_List.nodect=3 Resource_List.place=free Resource_List.select=3:ncpus=36:mpiprocs=36:pas_applications_enabled=Dyna:platform=G6254-36c-384G Resource_List.software=LS-Dyna resource_assigned.ncpus=108 
03/06/2023 10:00:00;L;license;floating license hour:102 day:102 month:102 max:102
03/06/2023 11:00:00;L;license;floating license hour:102 day:102 month:102 max:102
03/06/2023 11:57:53;E;123738.ml-hpc-master01;user=snaillitao group=users2 project=_pbs_project_default jobname=NewWheel_mona_num16 queue=workq ctime=1677831785 qtime=1677831785 etime=1677831785 start=1677831790 exec_host=ml-hpc-cn04/0*48+ml-hpc-cn05/0*48+ml-hpc-cn06/0*48+ml-hpc-cn07/0*48+ml-hpc-cn08/0*48+ml-hpc-cn09/0*48+ml-hpc-cn10/0*48+ml-hpc-cn11/0*48+ml-hpc-cn12/0*48+ml-hpc-cn13/0*48+ml-hpc-cn19/0*48+ml-hpc-cn20/0*48 exec_vnode=(ml-hpc-cn04:ncpus=48)+(ml-hpc-cn05:ncpus=48)+(ml-hpc-cn06:ncpus=48)+(ml-hpc-cn07:ncpus=48)+(ml-hpc-cn08:ncpus=48)+(ml-hpc-cn09:ncpus=48)+(ml-hpc-cn10:ncpus=48)+(ml-hpc-cn11:ncpus=48)+(ml-hpc-cn12:ncpus=48)+(ml-hpc-cn13:ncpus=48)+(ml-hpc-cn19:ncpus=48)+(ml-hpc-cn20:ncpus=48) Resource_List.higher=1 Resource_List.mpiprocs=576 Resource_List.ncpus=576 Resource_List.nodect=12 Resource_List.place=scatter Resource_List.select=12:ncpus=48:mpiprocs=48:pas_applications_enabled=Starccm:platform=P8260-48c-512G Resource_List.software=Starccm-AG-gui session=67107 end=1678075073 Exit_status=0 resources_used.cpupercent=4799 resources_used.cput=3212:54:19 resources_used.mem=63070784kb resources_used.ncpus=576 resources_used.vmem=429636204kb resources_used.walltime=67:34:41 run_count=1
03/06/2023 12:00:00;L;license;floating license hour:102 day:102 month:102 max:102
03/06/2023 12:25:41;E;123727.ml-hpc-master01;user=zhaozhenzong group=users2 project=_pbs_project_default jobname=alita0303 queue=workq ctime=1677827120 qtime=1677827120 etime=1677827120 start=1677827125 exec_host=ml-hpc-cn01/0*48+ml-hpc-cn49/0*48+ml-hpc-cn55/0*48+ml-hpc-cn56/0*48 exec_vnode=(ml-hpc-cn01:ncpus=48)+(ml-hpc-cn49:ncpus=48)+(ml-hpc-cn55:ncpus=48)+(ml-hpc-cn56:ncpus=48) Resource_List.higher=1 Resource_List.mpiprocs=192 Resource_List.ncpus=192 Resource_List.nodect=4 Resource_List.place=scatter Resource_List.select=4:ncpus=48:mpiprocs=48:pas_applications_enabled=Starccm:platform=P8260-48c-512G Resource_List.software=Starccm-AG-gui session=40774 end=1678076741 Exit_status=0 resources_used.cpupercent=4799 resources_used.cput=3240:47:49 resources_used.mem=130065888kb resources_used.ncpus=192 resources_used.vmem=475080960kb resources_used.walltime=69:08:37 run_count=1
03/06/2023 13:00:00;L;license;floating license hour:102 day:102 month:102 max:102
03/06/2023 13:25:17;Q;124235.ml-hpc-master01;user=markhaoyi group=users2 project=_pbs_project_default jobname=SOBL_Rear queue=routeq ctime=1678080317 qtime=1678080317 etime=0 Resource_List.dynalic=36 Resource_List.higher=1 Resource_List.mpiprocs=36 Resource_List.ncpus=36 Resource_List.nodect=1 Resource_List.place=free Resource_List.select=1:ncpus=36:mpiprocs=36:pas_applications_enabled=Dyna:platform=G6254-36c-384G Resource_List.software=LS-Dyna 
03/06/2023 13:25:17;Q;124235.ml-hpc-master01;user=markhaoyi group=users2 project=_pbs_project_default jobname=SOBL_Rear queue=workq ctime=1678080317 qtime=1678080317 etime=1678080317 Resource_List.dynalic=36 Resource_List.higher=1 Resource_List.mpiprocs=36 Resource_List.ncpus=36 Resource_List.nodect=1 Resource_List.place=free Resource_List.select=1:ncpus=36:mpiprocs=36:pas_applications_enabled=Dyna:platform=G6254-36c-384G Resource_List.software=LS-Dyna 
03/06/2023 13:25:24;S;124235.ml-hpc-master01;user=markhaoyi group=users2 project=_pbs_project_default jobname=SOBL_Rear queue=workq ctime=1678080317 qtime=1678080317 etime=1678080317 start=1678080324 exec_host=ml-hpc-hfcn07/0*36 exec_vnode=(ml-hpc-hfcn07:ncpus=36) Resource_List.dynalic=36 Resource_List.higher=1 Resource_List.mpiprocs=36 Resource_List.ncpus=36 Resource_List.nodect=1 Resource_List.place=free Resource_List.select=1:ncpus=36:mpiprocs=36:pas_applications_enabled=Dyna:platform=G6254-36c-384G Resource_List.software=LS-Dyna resource_assigned.ncpus=36 
03/06/2023 13:35:43;Q;124236.ml-hpc-master01;user=bilizhi group=users2 project=_pbs_project_default jobname=Mona_TG2_CIASI_2023_RC_100_50ms queue=routeq ctime=1678080943 qtime=1678080943 etime=0 Resource_List.dynalic=72 Resource_List.higher=1 Resource_List.mpiprocs=72 Resource_List.ncpus=72 Resource_List.nodect=2 Resource_List.place=free Resource_List.select=2:ncpus=36:mpiprocs=36:pas_applications_enabled=Dyna:platform=G6254-36c-384G Resource_List.software=LS-Dyna 
03/06/2023 13:35:43;Q;124236.ml-hpc-master01;user=bilizhi group=users2 project=_pbs_project_default jobname=Mona_TG2_CIASI_2023_RC_100_50ms queue=workq ctime=1678080943 qtime=1678080943 etime=1678080943 Resource_List.dynalic=72 Resource_List.higher=1 Resource_List.mpiprocs=72 Resource_List.ncpus=72 Resource_List.nodect=2 Resource_List.place=free Resource_List.select=2:ncpus=36:mpiprocs=36:pas_applications_enabled=Dyna:platform=G6254-36c-384G Resource_List.software=LS-Dyna 
03/06/2023 13:35:48;S;124236.ml-hpc-master01;user=bilizhi group=users2 project=_pbs_project_default jobname=Mona_TG2_CIASI_2023_RC_100_50ms queue=workq ctime=1678080943 qtime=1678080943 etime=1678080943 start=1678080948 exec_host=ml-hpc-hfcn08/0*36+ml-hpc-hfcn09/0*36 exec_vnode=(ml-hpc-hfcn08:ncpus=36)+(ml-hpc-hfcn09:ncpus=36) Resource_List.dynalic=72 Resource_List.higher=1 Resource_List.mpiprocs=72 Resource_List.ncpus=72 Resource_List.nodect=2 Resource_List.place=free Resource_List.select=2:ncpus=36:mpiprocs=36:pas_applications_enabled=Dyna:platform=G6254-36c-384G Resource_List.software=LS-Dyna resource_assigned.ncpus=72 
03/06/2023 13:36:06;Q;124237.ml-hpc-master01;user=lizhengbo group=users2 project=_pbs_project_default jobname=Alita_TG1_sdm_stiff_1000Hz_20221021 queue=routeq ctime=1678080966 qtime=1678080966 etime=0 Resource_List.higher=1 Resource_List.hwlic=35000 Resource_List.mpiprocs=8 Resource_List.ncpus=8 Resource_List.nodect=1 Resource_List.place=free Resource_List.select=1:ncpus=8:mpiprocs=8:pas_applications_enabled=Optistruct Resource_List.software=OptiStruct Resource_List.walltime=168:00:00 
03/06/2023 13:36:06;Q;124237.ml-hpc-master01;user=lizhengbo group=users2 project=_pbs_project_default jobname=Alita_TG1_sdm_stiff_1000Hz_20221021 queue=workq ctime=1678080966 qtime=1678080966 etime=1678080966 Resource_List.higher=1 Resource_List.hwlic=35000 Resource_List.mpiprocs=8 Resource_List.ncpus=8 Resource_List.nodect=1 Resource_List.place=free Resource_List.select=1:ncpus=8:mpiprocs=8:pas_applications_enabled=Optistruct Resource_List.software=OptiStruct Resource_List.walltime=168:00:00 
03/06/2023 13:36:11;S;124237.ml-hpc-master01;user=lizhengbo group=users2 project=_pbs_project_default jobname=Alita_TG1_sdm_stiff_1000Hz_20221021 queue=workq ctime=1678080966 qtime=1678080966 etime=1678080966 start=1678080971 exec_host=ml-rtx6000-ser002/1*8 exec_vnode=(ml-rtx6000-ser002:ncpus=8) Resource_List.higher=1 Resource_List.hwlic=35000 Resource_List.mpiprocs=8 Resource_List.ncpus=8 Resource_List.nodect=1 Resource_List.place=free Resource_List.select=1:ncpus=8:mpiprocs=8:pas_applications_enabled=Optistruct Resource_List.software=OptiStruct Resource_List.walltime=168:00:00 resource_assigned.ncpus=8 
03/06/2023 13:42:04;Q;124238.ml-hpc-master01;user=bilizhi group=users2 project=_pbs_project_default jobname=Mona_TG2_CIASI_2023_RC_100_02 queue=routeq ctime=1678081324 qtime=1678081324 etime=0 Resource_List.dynalic=72 Resource_List.higher=1 Resource_List.mpiprocs=72 Resource_List.ncpus=72 Resource_List.nodect=2 Resource_List.place=free Resource_List.select=2:ncpus=36:mpiprocs=36:pas_applications_enabled=Dyna:platform=G6254-36c-384G Resource_List.software=LS-Dyna 
03/06/2023 13:42:04;Q;124238.ml-hpc-master01;user=bilizhi group=users2 project=_pbs_project_default jobname=Mona_TG2_CIASI_2023_RC_100_02 queue=workq ctime=1678081324 qtime=1678081324 etime=1678081324 Resource_List.dynalic=72 Resource_List.higher=1 Resource_List.mpiprocs=72 Resource_List.ncpus=72 Resource_List.nodect=2 Resource_List.place=free Resource_List.select=2:ncpus=36:mpiprocs=36:pas_applications_enabled=Dyna:platform=G6254-36c-384G Resource_List.software=LS-Dyna 
03/06/2023 13:42:09;S;124238.ml-hpc-master01;user=bilizhi group=users2 project=_pbs_project_default jobname=Mona_TG2_CIASI_2023_RC_100_02 queue=workq ctime=1678081324 qtime=1678081324 etime=1678081324 start=1678081329 exec_host=ml-hpc-hfcn10/0*36+ml-hpc-hfcn11/0*36 exec_vnode=(ml-hpc-hfcn10:ncpus=36)+(ml-hpc-hfcn11:ncpus=36) Resource_List.dynalic=72 Resource_List.higher=1 Resource_List.mpiprocs=72 Resource_List.ncpus=72 Resource_List.nodect=2 Resource_List.place=free Resource_List.select=2:ncpus=36:mpiprocs=36:pas_applications_enabled=Dyna:platform=G6254-36c-384G Resource_List.software=LS-Dyna resource_assigned.ncpus=72 
03/06/2023 13:53:32;Q;124239.ml-hpc-master01;user=zhaozhenzong group=users2 project=_pbs_project_default jobname=alita0306 queue=routeq ctime=1678082012 qtime=1678082012 etime=0 Resource_List.higher=1 Resource_List.mpiprocs=720 Resource_List.ncpus=720 Resource_List.nodect=15 Resource_List.place=scatter Resource_List.select=15:ncpus=48:mpiprocs=48:pas_applications_enabled=Starccm:platform=P8260-48c-512G Resource_List.software=Starccm-AG-gui 
03/06/2023 13:53:32;Q;124239.ml-hpc-master01;user=zhaozhenzong group=users2 project=_pbs_project_default jobname=alita0306 queue=workq ctime=1678082012 qtime=1678082012 etime=1678082012 Resource_List.higher=1 Resource_List.mpiprocs=720 Resource_List.ncpus=720 Resource_List.nodect=15 Resource_List.place=scatter Resource_List.select=15:ncpus=48:mpiprocs=48:pas_applications_enabled=Starccm:platform=P8260-48c-512G Resource_List.software=Starccm-AG-gui 
03/06/2023 13:56:52;S;124239.ml-hpc-master01;user=zhaozhenzong group=users2 project=_pbs_project_default jobname=alita0306 queue=workq ctime=1678082012 qtime=1678082012 etime=1678082012 start=1678082212 exec_host=ml-hpc-cn01/0*48+ml-hpc-cn04/0*48+ml-hpc-cn05/0*48+ml-hpc-cn06/0*48+ml-hpc-cn07/0*48+ml-hpc-cn08/0*48+ml-hpc-cn09/0*48+ml-hpc-cn10/0*48+ml-hpc-cn11/0*48+ml-hpc-cn12/0*48+ml-hpc-cn13/0*48+ml-hpc-cn19/0*48+ml-hpc-cn20/0*48+ml-hpc-cn49/0*48+ml-hpc-cn55/0*48 exec_vnode=(ml-hpc-cn01:ncpus=48)+(ml-hpc-cn04:ncpus=48)+(ml-hpc-cn05:ncpus=48)+(ml-hpc-cn06:ncpus=48)+(ml-hpc-cn07:ncpus=48)+(ml-hpc-cn08:ncpus=48)+(ml-hpc-cn09:ncpus=48)+(ml-hpc-cn10:ncpus=48)+(ml-hpc-cn11:ncpus=48)+(ml-hpc-cn12:ncpus=48)+(ml-hpc-cn13:ncpus=48)+(ml-hpc-cn19:ncpus=48)+(ml-hpc-cn20:ncpus=48)+(ml-hpc-cn49:ncpus=48)+(ml-hpc-cn55:ncpus=48) Resource_List.higher=1 Resource_List.mpiprocs=720 Resource_List.ncpus=720 Resource_List.nodect=15 Resource_List.place=scatter Resource_List.select=15:ncpus=48:mpiprocs=48:pas_applications_enabled=Starccm:platform=P8260-48c-512G Resource_List.software=Starccm-AG-gui resource_assigned.ncpus=720 
03/06/2023 14:00:00;L;license;floating license hour:102 day:102 month:102 max:102
03/06/2023 14:33:29;E;124237.ml-hpc-master01;user=lizhengbo group=users2 project=_pbs_project_default jobname=Alita_TG1_sdm_stiff_1000Hz_20221021 queue=workq ctime=1678080966 qtime=1678080966 etime=1678080966 start=1678080971 exec_host=ml-rtx6000-ser002/1*8 exec_vnode=(ml-rtx6000-ser002:ncpus=8) Resource_List.higher=1 Resource_List.hwlic=35000 Resource_List.mpiprocs=8 Resource_List.ncpus=8 Resource_List.nodect=1 Resource_List.place=free Resource_List.select=1:ncpus=8:mpiprocs=8:pas_applications_enabled=Optistruct Resource_List.software=OptiStruct Resource_List.walltime=168:00:00 session=160485 end=1678084409 Exit_status=0 resources_used.cpupercent=797 resources_used.cput=06:21:39 resources_used.mem=69611920kb resources_used.ncpus=8 resources_used.vmem=71696200kb resources_used.walltime=00:57:18 run_count=1
03/06/2023 14:52:20;Q;124240.ml-hpc-master01;user=dailiangbo group=users2 project=_pbs_project_default jobname=LS-Dyna queue=routeq ctime=1678085540 qtime=1678085540 etime=0 Resource_List.higher=1 Resource_List.ncpus=1 Resource_List.nodect=1 Resource_List.place=free Resource_List.select=1:ncpus=1 Resource_List.software=LS-Dyna 
03/06/2023 14:52:20;Q;124240.ml-hpc-master01;user=dailiangbo group=users2 project=_pbs_project_default jobname=LS-Dyna queue=workq ctime=1678085540 qtime=1678085540 etime=1678085540 Resource_List.higher=1 Resource_List.ncpus=1 Resource_List.nodect=1 Resource_List.place=free Resource_List.select=1:ncpus=1 Resource_List.software=LS-Dyna 
03/06/2023 14:52:26;S;124240.ml-hpc-master01;user=dailiangbo group=users2 project=_pbs_project_default jobname=LS-Dyna queue=workq ctime=1678085540 qtime=1678085540 etime=1678085540 start=1678085546 exec_host=ml-rtx6000-ser002/1 exec_vnode=(ml-rtx6000-ser002:ncpus=1) Resource_List.higher=1 Resource_List.ncpus=1 Resource_List.nodect=1 Resource_List.place=free Resource_List.select=1:ncpus=1 Resource_List.software=LS-Dyna resource_assigned.ncpus=1 
03/06/2023 14:52:35;E;124240.ml-hpc-master01;user=dailiangbo group=users2 project=_pbs_project_default jobname=LS-Dyna queue=workq ctime=1678085540 qtime=1678085540 etime=1678085540 start=1678085546 exec_host=ml-rtx6000-ser002/1 exec_vnode=(ml-rtx6000-ser002:ncpus=1) Resource_List.higher=1 Resource_List.ncpus=1 Resource_List.nodect=1 Resource_List.place=free Resource_List.select=1:ncpus=1 Resource_List.software=LS-Dyna session=160632 end=1678085555 Exit_status=107 resources_used.cpupercent=12 resources_used.cput=00:00:01 resources_used.mem=0kb resources_used.ncpus=1 resources_used.vmem=0kb resources_used.walltime=00:00:08 run_count=1
03/06/2023 14:53:06;Q;124241.ml-hpc-master01;user=dailiangbo group=users2 project=_pbs_project_default jobname=LS-Dyna queue=routeq ctime=1678085586 qtime=1678085586 etime=0 Resource_List.higher=1 Resource_List.ncpus=1 Resource_List.nodect=1 Resource_List.place=free Resource_List.select=1:ncpus=1 Resource_List.software=LS-Dyna 
03/06/2023 14:53:06;Q;124241.ml-hpc-master01;user=dailiangbo group=users2 project=_pbs_project_default jobname=LS-Dyna queue=workq ctime=1678085586 qtime=1678085586 etime=1678085586 Resource_List.higher=1 Resource_List.ncpus=1 Resource_List.nodect=1 Resource_List.place=free Resource_List.select=1:ncpus=1 Resource_List.software=LS-Dyna 
03/06/2023 14:53:12;S;124241.ml-hpc-master01;user=dailiangbo group=users2 project=_pbs_project_default jobname=LS-Dyna queue=workq ctime=1678085586 qtime=1678085586 etime=1678085586 start=1678085592 exec_host=ml-rtx6000-ser002/1 exec_vnode=(ml-rtx6000-ser002:ncpus=1) Resource_List.higher=1 Resource_List.ncpus=1 Resource_List.nodect=1 Resource_List.place=free Resource_List.select=1:ncpus=1 Resource_List.software=LS-Dyna resource_assigned.ncpus=1 
03/06/2023 14:53:20;E;124241.ml-hpc-master01;user=dailiangbo group=users2 project=_pbs_project_default jobname=LS-Dyna queue=workq ctime=1678085586 qtime=1678085586 etime=1678085586 start=1678085592 exec_host=ml-rtx6000-ser002/1 exec_vnode=(ml-rtx6000-ser002:ncpus=1) Resource_List.higher=1 Resource_List.ncpus=1 Resource_List.nodect=1 Resource_List.place=free Resource_List.select=1:ncpus=1 Resource_List.software=LS-Dyna session=163280 end=1678085600 Exit_status=107 resources_used.cpupercent=14 resources_used.cput=00:00:01 resources_used.mem=0kb resources_used.ncpus=1 resources_used.vmem=0kb resources_used.walltime=00:00:07 run_count=1
03/06/2023 14:55:54;Q;124242.ml-hpc-master01;user=bilizhi group=users2 project=_pbs_project_default jobname=Mona_TG2_CNCAP_SPRB_103 queue=routeq ctime=1678085754 qtime=1678085754 etime=0 Resource_List.dynalic=36 Resource_List.higher=1 Resource_List.mpiprocs=36 Resource_List.ncpus=36 Resource_List.nodect=1 Resource_List.place=free Resource_List.select=1:ncpus=36:mpiprocs=36:pas_applications_enabled=Dyna:platform=G6254-36c-384G Resource_List.software=LS-Dyna 
03/06/2023 14:55:54;Q;124242.ml-hpc-master01;user=bilizhi group=users2 project=_pbs_project_default jobname=Mona_TG2_CNCAP_SPRB_103 queue=workq ctime=1678085754 qtime=1678085754 etime=1678085754 Resource_List.dynalic=36 Resource_List.higher=1 Resource_List.mpiprocs=36 Resource_List.ncpus=36 Resource_List.nodect=1 Resource_List.place=free Resource_List.select=1:ncpus=36:mpiprocs=36:pas_applications_enabled=Dyna:platform=G6254-36c-384G Resource_List.software=LS-Dyna 
03/06/2023 14:55:59;S;124242.ml-hpc-master01;user=bilizhi group=users2 project=_pbs_project_default jobname=Mona_TG2_CNCAP_SPRB_103 queue=workq ctime=1678085754 qtime=1678085754 etime=1678085754 start=1678085759 exec_host=ml-hpc-hfcn12/0*36 exec_vnode=(ml-hpc-hfcn12:ncpus=36) Resource_List.dynalic=36 Resource_List.higher=1 Resource_List.mpiprocs=36 Resource_List.ncpus=36 Resource_List.nodect=1 Resource_List.place=free Resource_List.select=1:ncpus=36:mpiprocs=36:pas_applications_enabled=Dyna:platform=G6254-36c-384G Resource_List.software=LS-Dyna resource_assigned.ncpus=36 
03/06/2023 14:56:05;Q;124243.ml-hpc-master01;user=bilizhi group=users2 project=_pbs_project_default jobname=Mona_TG2_CIASI_MDB_103 queue=routeq ctime=1678085765 qtime=1678085765 etime=0 Resource_List.dynalic=36 Resource_List.higher=1 Resource_List.mpiprocs=36 Resource_List.ncpus=36 Resource_List.nodect=1 Resource_List.place=free Resource_List.select=1:ncpus=36:mpiprocs=36:pas_applications_enabled=Dyna:platform=G6254-36c-384G Resource_List.software=LS-Dyna 
03/06/2023 14:56:05;Q;124243.ml-hpc-master01;user=bilizhi group=users2 project=_pbs_project_default jobname=Mona_TG2_CIASI_MDB_103 queue=workq ctime=1678085765 qtime=1678085765 etime=1678085765 Resource_List.dynalic=36 Resource_List.higher=1 Resource_List.mpiprocs=36 Resource_List.ncpus=36 Resource_List.nodect=1 Resource_List.place=free Resource_List.select=1:ncpus=36:mpiprocs=36:pas_applications_enabled=Dyna:platform=G6254-36c-384G Resource_List.software=LS-Dyna 
03/06/2023 14:56:10;S;124243.ml-hpc-master01;user=bilizhi group=users2 project=_pbs_project_default jobname=Mona_TG2_CIASI_MDB_103 queue=workq ctime=1678085765 qtime=1678085765 etime=1678085765 start=1678085770 exec_host=ml-hpc-hfcn13/0*36 exec_vnode=(ml-hpc-hfcn13:ncpus=36) Resource_List.dynalic=36 Resource_List.higher=1 Resource_List.mpiprocs=36 Resource_List.ncpus=36 Resource_List.nodect=1 Resource_List.place=free Resource_List.select=1:ncpus=36:mpiprocs=36:pas_applications_enabled=Dyna:platform=G6254-36c-384G Resource_List.software=LS-Dyna resource_assigned.ncpus=36 
03/06/2023 15:00:00;L;license;floating license hour:102 day:102 month:102 max:102
03/06/2023 15:06:17;Q;124244.ml-hpc-master01;user=grapesli group=users2 project=_pbs_project_default jobname=66_TG1duibiao035_IPcase23_A_8_5 queue=routeq ctime=1678086377 qtime=1678086377 etime=0 Resource_List.dynalic=36 Resource_List.higher=1 Resource_List.mpiprocs=36 Resource_List.ncpus=36 Resource_List.nodect=1 Resource_List.place=free Resource_List.select=1:ncpus=36:mpiprocs=36:pas_applications_enabled=Dyna:platform=G6254-36c-384G Resource_List.software=LS-Dyna 
03/06/2023 15:06:17;Q;124244.ml-hpc-master01;user=grapesli group=users2 project=_pbs_project_default jobname=66_TG1duibiao035_IPcase23_A_8_5 queue=limitq ctime=1678086377 qtime=1678086377 etime=1678086377 Resource_List.dynalic=36 Resource_List.higher=1 Resource_List.mpiprocs=36 Resource_List.ncpus=36 Resource_List.nodect=1 Resource_List.place=free Resource_List.select=1:ncpus=36:mpiprocs=36:pas_applications_enabled=Dyna:platform=G6254-36c-384G Resource_List.software=LS-Dyna 
03/06/2023 15:06:47;S;124244.ml-hpc-master01;user=grapesli group=users2 project=_pbs_project_default jobname=66_TG1duibiao035_IPcase23_A_8_5 queue=limitq ctime=1678086377 qtime=1678086377 etime=1678086377 start=1678086407 exec_host=ml-hpc-hfcn14/0*36 exec_vnode=(ml-hpc-hfcn14:ncpus=36) Resource_List.dynalic=36 Resource_List.higher=1 Resource_List.mpiprocs=36 Resource_List.ncpus=36 Resource_List.nodect=1 Resource_List.place=free Resource_List.select=1:ncpus=36:mpiprocs=36:pas_applications_enabled=Dyna:platform=G6254-36c-384G Resource_List.software=LS-Dyna resource_assigned.ncpus=36 
03/06/2023 15:07:16;Q;124245.ml-hpc-master01;user=grapesli group=users2 project=_pbs_project_default jobname=66_TG1duibiao035_IPcase23_A_9_5 queue=routeq ctime=1678086436 qtime=1678086436 etime=0 Resource_List.dynalic=36 Resource_List.higher=1 Resource_List.mpiprocs=36 Resource_List.ncpus=36 Resource_List.nodect=1 Resource_List.place=free Resource_List.select=1:ncpus=36:mpiprocs=36:pas_applications_enabled=Dyna:platform=G6254-36c-384G Resource_List.software=LS-Dyna 
03/06/2023 15:07:16;Q;124245.ml-hpc-master01;user=grapesli group=users2 project=_pbs_project_default jobname=66_TG1duibiao035_IPcase23_A_9_5 queue=limitq ctime=1678086436 qtime=1678086436 etime=1678086436 Resource_List.dynalic=36 Resource_List.higher=1 Resource_List.mpiprocs=36 Resource_List.ncpus=36 Resource_List.nodect=1 Resource_List.place=free Resource_List.select=1:ncpus=36:mpiprocs=36:pas_applications_enabled=Dyna:platform=G6254-36c-384G Resource_List.software=LS-Dyna 
03/06/2023 15:07:22;S;124245.ml-hpc-master01;user=grapesli group=users2 project=_pbs_project_default jobname=66_TG1duibiao035_IPcase23_A_9_5 queue=limitq ctime=1678086436 qtime=1678086436 etime=1678086436 start=1678086442 exec_host=ml-hpc-hfcn15/0*36 exec_vnode=(ml-hpc-hfcn15:ncpus=36) Resource_List.dynalic=36 Resource_List.higher=1 Resource_List.mpiprocs=36 Resource_List.ncpus=36 Resource_List.nodect=1 Resource_List.place=free Resource_List.select=1:ncpus=36:mpiprocs=36:pas_applications_enabled=Dyna:platform=G6254-36c-384G Resource_List.software=LS-Dyna resource_assigned.ncpus=36 
03/06/2023 15:07:25;Q;124246.ml-hpc-master01;user=grapesli group=users2 project=_pbs_project_default jobname=66_TG1duibiao035_IPcase23_A_9_-2 queue=routeq ctime=1678086445 qtime=1678086445 etime=0 Resource_List.dynalic=36 Resource_List.higher=1 Resource_List.mpiprocs=36 Resource_List.ncpus=36 Resource_List.nodect=1 Resource_List.place=free Resource_List.select=1:ncpus=36:mpiprocs=36:pas_applications_enabled=Dyna:platform=G6254-36c-384G Resource_List.software=LS-Dyna 
03/06/2023 15:07:25;Q;124246.ml-hpc-master01;user=grapesli group=users2 project=_pbs_project_default jobname=66_TG1duibiao035_IPcase23_A_9_-2 queue=limitq ctime=1678086445 qtime=1678086445 etime=1678086445 Resource_List.dynalic=36 Resource_List.higher=1 Resource_List.mpiprocs=36 Resource_List.ncpus=36 Resource_List.nodect=1 Resource_List.place=free Resource_List.select=1:ncpus=36:mpiprocs=36:pas_applications_enabled=Dyna:platform=G6254-36c-384G Resource_List.software=LS-Dyna 
03/06/2023 15:07:32;S;124246.ml-hpc-master01;user=grapesli group=users2 project=_pbs_project_default jobname=66_TG1duibiao035_IPcase23_A_9_-2 queue=limitq ctime=1678086445 qtime=1678086445 etime=1678086445 start=1678086452 exec_host=ml-hpc-hfcn16/0*36 exec_vnode=(ml-hpc-hfcn16:ncpus=36) Resource_List.dynalic=36 Resource_List.higher=1 Resource_List.mpiprocs=36 Resource_List.ncpus=36 Resource_List.nodect=1 Resource_List.place=free Resource_List.select=1:ncpus=36:mpiprocs=36:pas_applications_enabled=Dyna:platform=G6254-36c-384G Resource_List.software=LS-Dyna resource_assigned.ncpus=36 
03/06/2023 15:07:37;Q;124247.ml-hpc-master01;user=grapesli group=users2 project=_pbs_project_default jobname=66_TG1duibiao035_IPcase23_A_12_-6 queue=routeq ctime=1678086457 qtime=1678086457 etime=0 Resource_List.dynalic=36 Resource_List.higher=1 Resource_List.mpiprocs=36 Resource_List.ncpus=36 Resource_List.nodect=1 Resource_List.place=free Resource_List.select=1:ncpus=36:mpiprocs=36:pas_applications_enabled=Dyna:platform=G6254-36c-384G Resource_List.software=LS-Dyna 
03/06/2023 15:07:37;Q;124247.ml-hpc-master01;user=grapesli group=users2 project=_pbs_project_default jobname=66_TG1duibiao035_IPcase23_A_12_-6 queue=limitq ctime=1678086457 qtime=1678086457 etime=1678086457 Resource_List.dynalic=36 Resource_List.higher=1 Resource_List.mpiprocs=36 Resource_List.ncpus=36 Resource_List.nodect=1 Resource_List.place=free Resource_List.select=1:ncpus=36:mpiprocs=36:pas_applications_enabled=Dyna:platform=G6254-36c-384G Resource_List.software=LS-Dyna 
03/06/2023 15:07:43;S;124247.ml-hpc-master01;user=grapesli group=users2 project=_pbs_project_default jobname=66_TG1duibiao035_IPcase23_A_12_-6 queue=limitq ctime=1678086457 qtime=1678086457 etime=1678086457 start=1678086463 exec_host=ml-hpc-hfcn17/0*36 exec_vnode=(ml-hpc-hfcn17:ncpus=36) Resource_List.dynalic=36 Resource_List.higher=1 Resource_List.mpiprocs=36 Resource_List.ncpus=36 Resource_List.nodect=1 Resource_List.place=free Resource_List.select=1:ncpus=36:mpiprocs=36:pas_applications_enabled=Dyna:platform=G6254-36c-384G Resource_List.software=LS-Dyna resource_assigned.ncpus=36 
03/06/2023 15:07:45;Q;124248.ml-hpc-master01;user=grapesli group=users2 project=_pbs_project_default jobname=66_TG1duibiao035_IPcase23_A_13_-6 queue=routeq ctime=1678086465 qtime=1678086465 etime=0 Resource_List.dynalic=36 Resource_List.higher=1 Resource_List.mpiprocs=36 Resource_List.ncpus=36 Resource_List.nodect=1 Resource_List.place=free Resource_List.select=1:ncpus=36:mpiprocs=36:pas_applications_enabled=Dyna:platform=P8260-48c-512G Resource_List.software=LS-Dyna 
03/06/2023 15:07:45;Q;124248.ml-hpc-master01;user=grapesli group=users2 project=_pbs_project_default jobname=66_TG1duibiao035_IPcase23_A_13_-6 queue=limitq ctime=1678086465 qtime=1678086465 etime=1678086465 Resource_List.dynalic=36 Resource_List.higher=1 Resource_List.mpiprocs=36 Resource_List.ncpus=36 Resource_List.nodect=1 Resource_List.place=free Resource_List.select=1:ncpus=36:mpiprocs=36:pas_applications_enabled=Dyna:platform=P8260-48c-512G Resource_List.software=LS-Dyna 
03/06/2023 15:08:17;S;124248.ml-hpc-master01;user=grapesli group=users2 project=_pbs_project_default jobname=66_TG1duibiao035_IPcase23_A_13_-6 queue=limitq ctime=1678086465 qtime=1678086465 etime=1678086465 start=1678086497 exec_host=ml-hpc-cn14/0*36 exec_vnode=(ml-hpc-cn14:ncpus=36) Resource_List.dynalic=36 Resource_List.higher=1 Resource_List.mpiprocs=36 Resource_List.ncpus=36 Resource_List.nodect=1 Resource_List.place=free Resource_List.select=1:ncpus=36:mpiprocs=36:pas_applications_enabled=Dyna:platform=P8260-48c-512G Resource_List.software=LS-Dyna resource_assigned.ncpus=36 
03/06/2023 15:10:32;Q;124249.ml-hpc-master01;user=dailiangbo group=users2 project=_pbs_project_default jobname=LS-Dyna queue=routeq ctime=1678086632 qtime=1678086632 etime=0 Resource_List.higher=1 Resource_List.ncpus=1 Resource_List.nodect=1 Resource_List.place=free Resource_List.select=1:ncpus=1 Resource_List.software=LS-Dyna 
03/06/2023 15:10:32;Q;124249.ml-hpc-master01;user=dailiangbo group=users2 project=_pbs_project_default jobname=LS-Dyna queue=workq ctime=1678086632 qtime=1678086632 etime=1678086632 Resource_List.higher=1 Resource_List.ncpus=1 Resource_List.nodect=1 Resource_List.place=free Resource_List.select=1:ncpus=1 Resource_List.software=LS-Dyna 
03/06/2023 15:10:49;S;124249.ml-hpc-master01;user=dailiangbo group=users2 project=_pbs_project_default jobname=LS-Dyna queue=workq ctime=1678086632 qtime=1678086632 etime=1678086632 start=1678086649 exec_host=ml-rtx6000-ser002/1 exec_vnode=(ml-rtx6000-ser002:ncpus=1) Resource_List.higher=1 Resource_List.ncpus=1 Resource_List.nodect=1 Resource_List.place=free Resource_List.select=1:ncpus=1 Resource_List.software=LS-Dyna resource_assigned.ncpus=1 
03/06/2023 15:11:52;Q;124250.ml-hpc-master01;user=dailiangbo group=users2 project=_pbs_project_default jobname=Mona_TG1_CNCAP_SPRB_HyperStudy_001 queue=routeq ctime=1678086712 qtime=1678086712 etime=0 Resource_List.dynalic=144 Resource_List.higher=1 Resource_List.mpiprocs=144 Resource_List.ncpus=144 Resource_List.nodect=4 Resource_List.place=free Resource_List.select=4:ncpus=36:mpiprocs=36:pas_applications_enabled=Dyna:platform=G6254-36c-384G Resource_List.software=LS-Dyna 
03/06/2023 15:11:52;Q;124250.ml-hpc-master01;user=dailiangbo group=users2 project=_pbs_project_default jobname=Mona_TG1_CNCAP_SPRB_HyperStudy_001 queue=workq ctime=1678086712 qtime=1678086712 etime=1678086712 Resource_List.dynalic=144 Resource_List.higher=1 Resource_List.mpiprocs=144 Resource_List.ncpus=144 Resource_List.nodect=4 Resource_List.place=free Resource_List.select=4:ncpus=36:mpiprocs=36:pas_applications_enabled=Dyna:platform=G6254-36c-384G Resource_List.software=LS-Dyna 
03/06/2023 15:12:00;D;124249.ml-hpc-master01;requestor=dailiangbo@ml-hpc-master01
03/06/2023 15:12:18;S;124250.ml-hpc-master01;user=dailiangbo group=users2 project=_pbs_project_default jobname=Mona_TG1_CNCAP_SPRB_HyperStudy_001 queue=workq ctime=1678086712 qtime=1678086712 etime=1678086712 start=1678086738 exec_host=ml-hpc-hfcn18/0*36+ml-hpc-hfcn19/0*36+ml-hpc-hfcn20/0*36+ml-hpc-hfcn21/0*36 exec_vnode=(ml-hpc-hfcn18:ncpus=36)+(ml-hpc-hfcn19:ncpus=36)+(ml-hpc-hfcn20:ncpus=36)+(ml-hpc-hfcn21:ncpus=36) Resource_List.dynalic=144 Resource_List.higher=1 Resource_List.mpiprocs=144 Resource_List.ncpus=144 Resource_List.nodect=4 Resource_List.place=free Resource_List.select=4:ncpus=36:mpiprocs=36:pas_applications_enabled=Dyna:platform=G6254-36c-384G Resource_List.software=LS-Dyna resource_assigned.ncpus=144 
03/06/2023 15:12:55;E;124249.ml-hpc-master01;user=dailiangbo group=users2 project=_pbs_project_default jobname=LS-Dyna queue=workq ctime=1678086632 qtime=1678086632 etime=1678086632 start=1678086649 exec_host=ml-rtx6000-ser002/1 exec_vnode=(ml-rtx6000-ser002:ncpus=1) Resource_List.higher=1 Resource_List.ncpus=1 Resource_List.nodect=1 Resource_List.place=free Resource_List.select=1:ncpus=1 Resource_List.software=LS-Dyna session=216330 end=1678086775 Exit_status=271 resources_used.cpupercent=0 resources_used.cput=00:00:00 resources_used.mem=27908kb resources_used.ncpus=1 resources_used.vmem=888516kb resources_used.walltime=00:01:28 run_count=1
03/06/2023 15:13:25;Q;124251.ml-hpc-master01;user=lizhengbo group=users2 project=_pbs_project_default jobname=Alita_TG1_BIP_ACU_IPI_20230306 queue=routeq ctime=1678086805 qtime=1678086805 etime=0 Resource_List.higher=1 Resource_List.hwlic=35000 Resource_List.mpiprocs=8 Resource_List.ncpus=8 Resource_List.nodect=1 Resource_List.place=free Resource_List.select=1:ncpus=8:mpiprocs=8:pas_applications_enabled=Optistruct Resource_List.software=OptiStruct Resource_List.walltime=168:00:00 
03/06/2023 15:13:25;Q;124251.ml-hpc-master01;user=lizhengbo group=users2 project=_pbs_project_default jobname=Alita_TG1_BIP_ACU_IPI_20230306 queue=workq ctime=1678086805 qtime=1678086805 etime=1678086805 Resource_List.higher=1 Resource_List.hwlic=35000 Resource_List.mpiprocs=8 Resource_List.ncpus=8 Resource_List.nodect=1 Resource_List.place=free Resource_List.select=1:ncpus=8:mpiprocs=8:pas_applications_enabled=Optistruct Resource_List.software=OptiStruct Resource_List.walltime=168:00:00 
03/06/2023 15:13:33;S;124251.ml-hpc-master01;user=lizhengbo group=users2 project=_pbs_project_default jobname=Alita_TG1_BIP_ACU_IPI_20230306 queue=workq ctime=1678086805 qtime=1678086805 etime=1678086805 start=1678086813 exec_host=ml-rtx6000-ser002/1*8 exec_vnode=(ml-rtx6000-ser002:ncpus=8) Resource_List.higher=1 Resource_List.hwlic=35000 Resource_List.mpiprocs=8 Resource_List.ncpus=8 Resource_List.nodect=1 Resource_List.place=free Resource_List.select=1:ncpus=8:mpiprocs=8:pas_applications_enabled=Optistruct Resource_List.software=OptiStruct Resource_List.walltime=168:00:00 resource_assigned.ncpus=8 
03/06/2023 15:14:19;E;124251.ml-hpc-master01;user=lizhengbo group=users2 project=_pbs_project_default jobname=Alita_TG1_BIP_ACU_IPI_20230306 queue=workq ctime=1678086805 qtime=1678086805 etime=1678086805 start=1678086813 exec_host=ml-rtx6000-ser002/1*8 exec_vnode=(ml-rtx6000-ser002:ncpus=8) Resource_List.higher=1 Resource_List.hwlic=35000 Resource_List.mpiprocs=8 Resource_List.ncpus=8 Resource_List.nodect=1 Resource_List.place=free Resource_List.select=1:ncpus=8:mpiprocs=8:pas_applications_enabled=Optistruct Resource_List.software=OptiStruct Resource_List.walltime=168:00:00 session=225040 end=1678086859 Exit_status=1 resources_used.cpupercent=37 resources_used.cput=00:00:06 resources_used.mem=21660kb resources_used.ncpus=8 resources_used.vmem=388084kb resources_used.walltime=00:00:43 run_count=1
03/06/2023 15:21:45;Q;124252.ml-hpc-master01;user=lizhengbo group=users2 project=_pbs_project_default jobname=Alita_TG1_BIP_ACU_IPI_20230306 queue=routeq ctime=1678087305 qtime=1678087305 etime=0 Resource_List.higher=1 Resource_List.hwlic=35000 Resource_List.mpiprocs=8 Resource_List.ncpus=8 Resource_List.nodect=1 Resource_List.place=free Resource_List.select=1:ncpus=8:mpiprocs=8:pas_applications_enabled=Optistruct Resource_List.software=OptiStruct Resource_List.walltime=168:00:00 
03/06/2023 15:21:45;Q;124252.ml-hpc-master01;user=lizhengbo group=users2 project=_pbs_project_default jobname=Alita_TG1_BIP_ACU_IPI_20230306 queue=workq ctime=1678087305 qtime=1678087305 etime=1678087305 Resource_List.higher=1 Resource_List.hwlic=35000 Resource_List.mpiprocs=8 Resource_List.ncpus=8 Resource_List.nodect=1 Resource_List.place=free Resource_List.select=1:ncpus=8:mpiprocs=8:pas_applications_enabled=Optistruct Resource_List.software=OptiStruct Resource_List.walltime=168:00:00 
03/06/2023 15:21:51;S;124252.ml-hpc-master01;user=lizhengbo group=users2 project=_pbs_project_default jobname=Alita_TG1_BIP_ACU_IPI_20230306 queue=workq ctime=1678087305 qtime=1678087305 etime=1678087305 start=1678087311 exec_host=ml-rtx6000-ser002/1*8 exec_vnode=(ml-rtx6000-ser002:ncpus=8) Resource_List.higher=1 Resource_List.hwlic=35000 Resource_List.mpiprocs=8 Resource_List.ncpus=8 Resource_List.nodect=1 Resource_List.place=free Resource_List.select=1:ncpus=8:mpiprocs=8:pas_applications_enabled=Optistruct Resource_List.software=OptiStruct Resource_List.walltime=168:00:00 resource_assigned.ncpus=8 
03/06/2023 15:28:10;Q;124253.ml-hpc-master01;user=hanbingbing group=users2 project=_pbs_project_default jobname=70 queue=routeq ctime=1678087690 qtime=1678087690 etime=0 Resource_List.ansysanshpc=44 Resource_List.ansyslic=1 Resource_List.higher=1 Resource_List.mpiprocs=48 Resource_List.ncpus=48 Resource_List.nodect=1 Resource_List.place=free Resource_List.select=1:ncpus=48:mpiprocs=48:pas_applications_enabled=Compute:platform=P8260-48c-512G Resource_List.software=AnsysMechanical 
03/06/2023 15:28:10;Q;124253.ml-hpc-master01;user=hanbingbing group=users2 project=_pbs_project_default jobname=70 queue=workq ctime=1678087690 qtime=1678087690 etime=1678087690 Resource_List.ansysanshpc=44 Resource_List.ansyslic=1 Resource_List.higher=1 Resource_List.mpiprocs=48 Resource_List.ncpus=48 Resource_List.nodect=1 Resource_List.place=free Resource_List.select=1:ncpus=48:mpiprocs=48:pas_applications_enabled=Compute:platform=P8260-48c-512G Resource_List.software=AnsysMechanical 
03/06/2023 15:28:31;S;124253.ml-hpc-master01;user=hanbingbing group=users2 project=_pbs_project_default jobname=70 queue=workq ctime=1678087690 qtime=1678087690 etime=1678087690 start=1678087711 exec_host=ml-hpc-cn56/0*48 exec_vnode=(ml-hpc-cn56:ncpus=48) Resource_List.ansysanshpc=44 Resource_List.ansyslic=1 Resource_List.higher=1 Resource_List.mpiprocs=48 Resource_List.ncpus=48 Resource_List.nodect=1 Resource_List.place=free Resource_List.select=1:ncpus=48:mpiprocs=48:pas_applications_enabled=Compute:platform=P8260-48c-512G Resource_List.software=AnsysMechanical resource_assigned.ncpus=48 
03/06/2023 15:32:22;E;124252.ml-hpc-master01;user=lizhengbo group=users2 project=_pbs_project_default jobname=Alita_TG1_BIP_ACU_IPI_20230306 queue=workq ctime=1678087305 qtime=1678087305 etime=1678087305 start=1678087311 exec_host=ml-rtx6000-ser002/1*8 exec_vnode=(ml-rtx6000-ser002:ncpus=8) Resource_List.higher=1 Resource_List.hwlic=35000 Resource_List.mpiprocs=8 Resource_List.ncpus=8 Resource_List.nodect=1 Resource_List.place=free Resource_List.select=1:ncpus=8:mpiprocs=8:pas_applications_enabled=Optistruct Resource_List.software=OptiStruct Resource_List.walltime=168:00:00 session=20956 end=1678087942 Exit_status=0 resources_used.cpupercent=601 resources_used.cput=00:59:45 resources_used.mem=28766344kb resources_used.ncpus=8 resources_used.vmem=30926012kb resources_used.walltime=00:10:30 run_count=1
03/06/2023 15:48:16;Q;124254.ml-hpc-master01;user=grapesli group=users2 project=_pbs_project_default jobname=66_TG1duibiao035_IPcase23_A_9_-2_h3d queue=routeq ctime=1678088896 qtime=1678088896 etime=0 depend=afterany:124246.ml-hpc-master01@ml-hpc-master01 Resource_List.higher=1 Resource_List.hwlic=6000 Resource_List.hwlimit=1 Resource_List.mpiprocs=1 Resource_List.ncpus=1 Resource_List.nodect=1 Resource_List.place=free Resource_List.select=1:ncpus=1:mpiprocs=1:pas_applications_enabled=GUI Resource_List.software=Hvtrans 
03/06/2023 15:48:16;Q;124254.ml-hpc-master01;user=grapesli group=users2 project=_pbs_project_default jobname=66_TG1duibiao035_IPcase23_A_9_-2_h3d queue=limitq ctime=1678088896 qtime=1678088896 etime=0 depend=afterany:124246.ml-hpc-master01@ml-hpc-master01 Resource_List.higher=1 Resource_List.hwlic=6000 Resource_List.hwlimit=1 Resource_List.mpiprocs=1 Resource_List.ncpus=1 Resource_List.nodect=1 Resource_List.place=free Resource_List.select=1:ncpus=1:mpiprocs=1:pas_applications_enabled=GUI Resource_List.software=Hvtrans 
03/06/2023 15:48:41;Q;124255.ml-hpc-master01;user=grapesli group=users2 project=_pbs_project_default jobname=66_TG1duibiao035_IPcase23_A_8_5_h3d queue=routeq ctime=1678088921 qtime=1678088921 etime=0 depend=afterany:124244.ml-hpc-master01@ml-hpc-master01 Resource_List.higher=1 Resource_List.hwlic=6000 Resource_List.hwlimit=1 Resource_List.mpiprocs=1 Resource_List.ncpus=1 Resource_List.nodect=1 Resource_List.place=free Resource_List.select=1:ncpus=1:mpiprocs=1:pas_applications_enabled=GUI Resource_List.software=Hvtrans 
03/06/2023 15:48:41;Q;124255.ml-hpc-master01;user=grapesli group=users2 project=_pbs_project_default jobname=66_TG1duibiao035_IPcase23_A_8_5_h3d queue=limitq ctime=1678088921 qtime=1678088921 etime=0 depend=afterany:124244.ml-hpc-master01@ml-hpc-master01 Resource_List.higher=1 Resource_List.hwlic=6000 Resource_List.hwlimit=1 Resource_List.mpiprocs=1 Resource_List.ncpus=1 Resource_List.nodect=1 Resource_List.place=free Resource_List.select=1:ncpus=1:mpiprocs=1:pas_applications_enabled=GUI Resource_List.software=Hvtrans 
03/06/2023 15:48:44;Q;124256.ml-hpc-master01;user=grapesli group=users2 project=_pbs_project_default jobname=66_TG1duibiao035_IPcase23_A_9_5_h3d queue=routeq ctime=1678088924 qtime=1678088924 etime=0 depend=afterany:124245.ml-hpc-master01@ml-hpc-master01 Resource_List.higher=1 Resource_List.hwlic=6000 Resource_List.hwlimit=1 Resource_List.mpiprocs=1 Resource_List.ncpus=1 Resource_List.nodect=1 Resource_List.place=free Resource_List.select=1:ncpus=1:mpiprocs=1:pas_applications_enabled=GUI Resource_List.software=Hvtrans 
03/06/2023 15:48:44;Q;124256.ml-hpc-master01;user=grapesli group=users2 project=_pbs_project_default jobname=66_TG1duibiao035_IPcase23_A_9_5_h3d queue=limitq ctime=1678088924 qtime=1678088924 etime=0 depend=afterany:124245.ml-hpc-master01@ml-hpc-master01 Resource_List.higher=1 Resource_List.hwlic=6000 Resource_List.hwlimit=1 Resource_List.mpiprocs=1 Resource_List.ncpus=1 Resource_List.nodect=1 Resource_List.place=free Resource_List.select=1:ncpus=1:mpiprocs=1:pas_applications_enabled=GUI Resource_List.software=Hvtrans 
03/06/2023 15:48:50;E;124246.ml-hpc-master01;user=grapesli group=users2 project=_pbs_project_default jobname=66_TG1duibiao035_IPcase23_A_9_-2 queue=limitq ctime=1678086445 qtime=1678086445 etime=1678086445 start=1678086452 exec_host=ml-hpc-hfcn16/0*36 exec_vnode=(ml-hpc-hfcn16:ncpus=36) Resource_List.dynalic=36 Resource_List.higher=1 Resource_List.mpiprocs=36 Resource_List.ncpus=36 Resource_List.nodect=1 Resource_List.place=free Resource_List.select=1:ncpus=36:mpiprocs=36:pas_applications_enabled=Dyna:platform=G6254-36c-384G Resource_List.software=LS-Dyna session=84181 end=1678088930 Exit_status=0 resources_used.cpupercent=3580 resources_used.cput=23:44:57 resources_used.mem=8927432kb resources_used.ncpus=36 resources_used.vmem=25246464kb resources_used.walltime=00:40:47 run_count=1
03/06/2023 15:48:51;Q;124257.ml-hpc-master01;user=grapesli group=users2 project=_pbs_project_default jobname=66_TG1duibiao035_IPcase23_A_12_-6_h3d queue=routeq ctime=1678088931 qtime=1678088931 etime=0 depend=afterany:124247.ml-hpc-master01@ml-hpc-master01 Resource_List.higher=1 Resource_List.hwlic=6000 Resource_List.hwlimit=1 Resource_List.mpiprocs=1 Resource_List.ncpus=1 Resource_List.nodect=1 Resource_List.place=free Resource_List.select=1:ncpus=1:mpiprocs=1:pas_applications_enabled=GUI Resource_List.software=Hvtrans 
03/06/2023 15:48:51;Q;124257.ml-hpc-master01;user=grapesli group=users2 project=_pbs_project_default jobname=66_TG1duibiao035_IPcase23_A_12_-6_h3d queue=limitq ctime=1678088931 qtime=1678088931 etime=0 depend=afterany:124247.ml-hpc-master01@ml-hpc-master01 Resource_List.higher=1 Resource_List.hwlic=6000 Resource_List.hwlimit=1 Resource_List.mpiprocs=1 Resource_List.ncpus=1 Resource_List.nodect=1 Resource_List.place=free Resource_List.select=1:ncpus=1:mpiprocs=1:pas_applications_enabled=GUI Resource_List.software=Hvtrans 
03/06/2023 15:48:53;S;124254.ml-hpc-master01;user=grapesli group=users2 project=_pbs_project_default jobname=66_TG1duibiao035_IPcase23_A_9_-2_h3d queue=limitq ctime=1678088896 qtime=1678088896 etime=1678088930 start=1678088933 exec_host=ml-rtx6000-ser002/1 exec_vnode=(ml-rtx6000-ser002:ncpus=1) Resource_List.higher=1 Resource_List.hwlic=6000 Resource_List.hwlimit=1 Resource_List.mpiprocs=1 Resource_List.ncpus=1 Resource_List.nodect=1 Resource_List.place=free Resource_List.select=1:ncpus=1:mpiprocs=1:pas_applications_enabled=GUI Resource_List.software=Hvtrans resource_assigned.ncpus=1 
03/06/2023 15:49:15;E;124244.ml-hpc-master01;user=grapesli group=users2 project=_pbs_project_default jobname=66_TG1duibiao035_IPcase23_A_8_5 queue=limitq ctime=1678086377 qtime=1678086377 etime=1678086377 start=1678086407 exec_host=ml-hpc-hfcn14/0*36 exec_vnode=(ml-hpc-hfcn14:ncpus=36) Resource_List.dynalic=36 Resource_List.higher=1 Resource_List.mpiprocs=36 Resource_List.ncpus=36 Resource_List.nodect=1 Resource_List.place=free Resource_List.select=1:ncpus=36:mpiprocs=36:pas_applications_enabled=Dyna:platform=G6254-36c-384G Resource_List.software=LS-Dyna session=65517 end=1678088955 Exit_status=0 resources_used.cpupercent=3577 resources_used.cput=23:57:25 resources_used.mem=8951352kb resources_used.ncpus=36 resources_used.vmem=25192464kb resources_used.walltime=00:41:58 run_count=1
03/06/2023 15:49:19;E;124245.ml-hpc-master01;user=grapesli group=users2 project=_pbs_project_default jobname=66_TG1duibiao035_IPcase23_A_9_5 queue=limitq ctime=1678086436 qtime=1678086436 etime=1678086436 start=1678086442 exec_host=ml-hpc-hfcn15/0*36 exec_vnode=(ml-hpc-hfcn15:ncpus=36) Resource_List.dynalic=36 Resource_List.higher=1 Resource_List.mpiprocs=36 Resource_List.ncpus=36 Resource_List.nodect=1 Resource_List.place=free Resource_List.select=1:ncpus=36:mpiprocs=36:pas_applications_enabled=Dyna:platform=G6254-36c-384G Resource_List.software=LS-Dyna session=12836 end=1678088959 Exit_status=0 resources_used.cpupercent=3578 resources_used.cput=23:52:38 resources_used.mem=8929092kb resources_used.ncpus=36 resources_used.vmem=25172252kb resources_used.walltime=00:41:26 run_count=1
03/06/2023 15:49:19;S;124255.ml-hpc-master01;user=grapesli group=users2 project=_pbs_project_default jobname=66_TG1duibiao035_IPcase23_A_8_5_h3d queue=limitq ctime=1678088921 qtime=1678088921 etime=1678088955 start=1678088959 exec_host=ml-rtx6000-ser002/3 exec_vnode=(ml-rtx6000-ser002:ncpus=1) Resource_List.higher=1 Resource_List.hwlic=6000 Resource_List.hwlimit=1 Resource_List.mpiprocs=1 Resource_List.ncpus=1 Resource_List.nodect=1 Resource_List.place=free Resource_List.select=1:ncpus=1:mpiprocs=1:pas_applications_enabled=GUI Resource_List.software=Hvtrans resource_assigned.ncpus=1 
03/06/2023 15:49:19;S;124256.ml-hpc-master01;user=grapesli group=users2 project=_pbs_project_default jobname=66_TG1duibiao035_IPcase23_A_9_5_h3d queue=limitq ctime=1678088924 qtime=1678088924 etime=1678088959 start=1678088959 exec_host=ml-rtx6000-ser002/5 exec_vnode=(ml-rtx6000-ser002:ncpus=1) Resource_List.higher=1 Resource_List.hwlic=6000 Resource_List.hwlimit=1 Resource_List.mpiprocs=1 Resource_List.ncpus=1 Resource_List.nodect=1 Resource_List.place=free Resource_List.select=1:ncpus=1:mpiprocs=1:pas_applications_enabled=GUI Resource_List.software=Hvtrans resource_assigned.ncpus=1 
03/06/2023 15:49:26;E;124247.ml-hpc-master01;user=grapesli group=users2 project=_pbs_project_default jobname=66_TG1duibiao035_IPcase23_A_12_-6 queue=limitq ctime=1678086457 qtime=1678086457 etime=1678086457 start=1678086463 exec_host=ml-hpc-hfcn17/0*36 exec_vnode=(ml-hpc-hfcn17:ncpus=36) Resource_List.dynalic=36 Resource_List.higher=1 Resource_List.mpiprocs=36 Resource_List.ncpus=36 Resource_List.nodect=1 Resource_List.place=free Resource_List.select=1:ncpus=36:mpiprocs=36:pas_applications_enabled=Dyna:platform=G6254-36c-384G Resource_List.software=LS-Dyna session=198851 end=1678088966 Exit_status=0 resources_used.cpupercent=3582 resources_used.cput=24:03:57 resources_used.mem=8876132kb resources_used.ncpus=36 resources_used.vmem=25128872kb resources_used.walltime=00:41:12 run_count=1
03/06/2023 15:49:30;S;124257.ml-hpc-master01;user=grapesli group=users2 project=_pbs_project_default jobname=66_TG1duibiao035_IPcase23_A_12_-6_h3d queue=limitq ctime=1678088931 qtime=1678088931 etime=1678088966 start=1678088970 exec_host=ml-rtx6000-ser002/6 exec_vnode=(ml-rtx6000-ser002:ncpus=1) Resource_List.higher=1 Resource_List.hwlic=6000 Resource_List.hwlimit=1 Resource_List.mpiprocs=1 Resource_List.ncpus=1 Resource_List.nodect=1 Resource_List.place=free Resource_List.select=1:ncpus=1:mpiprocs=1:pas_applications_enabled=GUI Resource_List.software=Hvtrans resource_assigned.ncpus=1 
03/06/2023 15:52:03;E;124254.ml-hpc-master01;user=grapesli group=users2 project=_pbs_project_default jobname=66_TG1duibiao035_IPcase23_A_9_-2_h3d queue=limitq ctime=1678088896 qtime=1678088896 etime=1678088930 start=1678088933 exec_host=ml-rtx6000-ser002/1 exec_vnode=(ml-rtx6000-ser002:ncpus=1) Resource_List.higher=1 Resource_List.hwlic=6000 Resource_List.hwlimit=1 Resource_List.mpiprocs=1 Resource_List.ncpus=1 Resource_List.nodect=1 Resource_List.place=free Resource_List.select=1:ncpus=1:mpiprocs=1:pas_applications_enabled=GUI Resource_List.software=Hvtrans session=102665 end=1678089123 Exit_status=0 resources_used.cpupercent=110 resources_used.cput=00:02:07 resources_used.mem=281024kb resources_used.ncpus=1 resources_used.vmem=1119632kb resources_used.walltime=00:01:35 run_count=1
03/06/2023 15:52:25;E;124255.ml-hpc-master01;user=grapesli group=users2 project=_pbs_project_default jobname=66_TG1duibiao035_IPcase23_A_8_5_h3d queue=limitq ctime=1678088921 qtime=1678088921 etime=1678088955 start=1678088959 exec_host=ml-rtx6000-ser002/3 exec_vnode=(ml-rtx6000-ser002:ncpus=1) Resource_List.higher=1 Resource_List.hwlic=6000 Resource_List.hwlimit=1 Resource_List.mpiprocs=1 Resource_List.ncpus=1 Resource_List.nodect=1 Resource_List.place=free Resource_List.select=1:ncpus=1:mpiprocs=1:pas_applications_enabled=GUI Resource_List.software=Hvtrans session=104077 end=1678089145 Exit_status=0 resources_used.cpupercent=114 resources_used.cput=00:02:18 resources_used.mem=281896kb resources_used.ncpus=1 resources_used.vmem=1119632kb resources_used.walltime=00:01:32 run_count=1
03/06/2023 15:52:26;E;124256.ml-hpc-master01;user=grapesli group=users2 project=_pbs_project_default jobname=66_TG1duibiao035_IPcase23_A_9_5_h3d queue=limitq ctime=1678088924 qtime=1678088924 etime=1678088959 start=1678088959 exec_host=ml-rtx6000-ser002/5 exec_vnode=(ml-rtx6000-ser002:ncpus=1) Resource_List.higher=1 Resource_List.hwlic=6000 Resource_List.hwlimit=1 Resource_List.mpiprocs=1 Resource_List.ncpus=1 Resource_List.nodect=1 Resource_List.place=free Resource_List.select=1:ncpus=1:mpiprocs=1:pas_applications_enabled=GUI Resource_List.software=Hvtrans session=104078 end=1678089146 Exit_status=0 resources_used.cpupercent=115 resources_used.cput=00:02:25 resources_used.mem=281896kb resources_used.ncpus=1 resources_used.vmem=1119632kb resources_used.walltime=00:01:32 run_count=1
03/06/2023 15:52:35;E;124257.ml-hpc-master01;user=grapesli group=users2 project=_pbs_project_default jobname=66_TG1duibiao035_IPcase23_A_12_-6_h3d queue=limitq ctime=1678088931 qtime=1678088931 etime=1678088966 start=1678088970 exec_host=ml-rtx6000-ser002/6 exec_vnode=(ml-rtx6000-ser002:ncpus=1) Resource_List.higher=1 Resource_List.hwlic=6000 Resource_List.hwlimit=1 Resource_List.mpiprocs=1 Resource_List.ncpus=1 Resource_List.nodect=1 Resource_List.place=free Resource_List.select=1:ncpus=1:mpiprocs=1:pas_applications_enabled=GUI Resource_List.software=Hvtrans session=104807 end=1678089155 Exit_status=0 resources_used.cpupercent=111 resources_used.cput=00:02:07 resources_used.mem=281600kb resources_used.ncpus=1 resources_used.vmem=1119624kb resources_used.walltime=00:01:31 run_count=1
03/06/2023 15:55:39;Q;124258.ml-hpc-master01;user=grapesli group=users2 project=_pbs_project_default jobname=66_TG1duibiao035_IPcase23_A_13_-6_h3d queue=routeq ctime=1678089339 qtime=1678089339 etime=0 depend=afterany:124248.ml-hpc-master01@ml-hpc-master01 Resource_List.higher=1 Resource_List.hwlic=6000 Resource_List.hwlimit=1 Resource_List.mpiprocs=1 Resource_List.ncpus=1 Resource_List.nodect=1 Resource_List.place=free Resource_List.select=1:ncpus=1:mpiprocs=1:pas_applications_enabled=GUI Resource_List.software=Hvtrans 
03/06/2023 15:55:39;Q;124258.ml-hpc-master01;user=grapesli group=users2 project=_pbs_project_default jobname=66_TG1duibiao035_IPcase23_A_13_-6_h3d queue=limitq ctime=1678089339 qtime=1678089339 etime=0 depend=afterany:124248.ml-hpc-master01@ml-hpc-master01 Resource_List.higher=1 Resource_List.hwlic=6000 Resource_List.hwlimit=1 Resource_List.mpiprocs=1 Resource_List.ncpus=1 Resource_List.nodect=1 Resource_List.place=free Resource_List.select=1:ncpus=1:mpiprocs=1:pas_applications_enabled=GUI Resource_List.software=Hvtrans 
03/06/2023 15:56:17;E;124248.ml-hpc-master01;user=grapesli group=users2 project=_pbs_project_default jobname=66_TG1duibiao035_IPcase23_A_13_-6 queue=limitq ctime=1678086465 qtime=1678086465 etime=1678086465 start=1678086497 exec_host=ml-hpc-cn14/0*36 exec_vnode=(ml-hpc-cn14:ncpus=36) Resource_List.dynalic=36 Resource_List.higher=1 Resource_List.mpiprocs=36 Resource_List.ncpus=36 Resource_List.nodect=1 Resource_List.place=free Resource_List.select=1:ncpus=36:mpiprocs=36:pas_applications_enabled=Dyna:platform=P8260-48c-512G Resource_List.software=LS-Dyna session=12533 end=1678089377 Exit_status=0 resources_used.cpupercent=3600 resources_used.cput=27:55:54 resources_used.mem=8894828kb resources_used.ncpus=36 resources_used.vmem=25211196kb resources_used.walltime=00:47:27 run_count=1
03/06/2023 15:56:21;S;124258.ml-hpc-master01;user=grapesli group=users2 project=_pbs_project_default jobname=66_TG1duibiao035_IPcase23_A_13_-6_h3d queue=limitq ctime=1678089339 qtime=1678089339 etime=1678089377 start=1678089381 exec_host=ml-rtx6000-ser002/1 exec_vnode=(ml-rtx6000-ser002:ncpus=1) Resource_List.higher=1 Resource_List.hwlic=6000 Resource_List.hwlimit=1 Resource_List.mpiprocs=1 Resource_List.ncpus=1 Resource_List.nodect=1 Resource_List.place=free Resource_List.select=1:ncpus=1:mpiprocs=1:pas_applications_enabled=GUI Resource_List.software=Hvtrans resource_assigned.ncpus=1 
03/06/2023 15:59:25;E;124258.ml-hpc-master01;user=grapesli group=users2 project=_pbs_project_default jobname=66_TG1duibiao035_IPcase23_A_13_-6_h3d queue=limitq ctime=1678089339 qtime=1678089339 etime=1678089377 start=1678089381 exec_host=ml-rtx6000-ser002/1 exec_vnode=(ml-rtx6000-ser002:ncpus=1) Resource_List.higher=1 Resource_List.hwlic=6000 Resource_List.hwlimit=1 Resource_List.mpiprocs=1 Resource_List.ncpus=1 Resource_List.nodect=1 Resource_List.place=free Resource_List.select=1:ncpus=1:mpiprocs=1:pas_applications_enabled=GUI Resource_List.software=Hvtrans session=126186 end=1678089565 Exit_status=0 resources_used.cpupercent=112 resources_used.cput=00:01:58 resources_used.mem=281936kb resources_used.ncpus=1 resources_used.vmem=1119628kb resources_used.walltime=00:01:29 run_count=1
03/06/2023 16:00:00;L;license;floating license hour:102 day:102 month:102 max:102
03/06/2023 16:25:33;Q;124259.ml-hpc-master01;user=dailiangbo group=users2 project=_pbs_project_default jobname=Mona_TG1_CNCAP_SPRB_HyperStudy_001_h3d queue=routeq ctime=1678091133 qtime=1678091133 etime=0 depend=afterany:124250.ml-hpc-master01@ml-hpc-master01 Resource_List.higher=1 Resource_List.hwlic=6000 Resource_List.hwlimit=1 Resource_List.mpiprocs=1 Resource_List.ncpus=1 Resource_List.nodect=1 Resource_List.place=free Resource_List.select=1:ncpus=1:mpiprocs=1:pas_applications_enabled=GUI Resource_List.software=Hvtrans 
03/06/2023 16:25:33;Q;124259.ml-hpc-master01;user=dailiangbo group=users2 project=_pbs_project_default jobname=Mona_TG1_CNCAP_SPRB_HyperStudy_001_h3d queue=workq ctime=1678091133 qtime=1678091133 etime=0 depend=afterany:124250.ml-hpc-master01@ml-hpc-master01 Resource_List.higher=1 Resource_List.hwlic=6000 Resource_List.hwlimit=1 Resource_List.mpiprocs=1 Resource_List.ncpus=1 Resource_List.nodect=1 Resource_List.place=free Resource_List.select=1:ncpus=1:mpiprocs=1:pas_applications_enabled=GUI Resource_List.software=Hvtrans 
03/06/2023 16:25:54;E;124250.ml-hpc-master01;user=dailiangbo group=users2 project=_pbs_project_default jobname=Mona_TG1_CNCAP_SPRB_HyperStudy_001 queue=workq ctime=1678086712 qtime=1678086712 etime=1678086712 start=1678086738 exec_host=ml-hpc-hfcn18/0*36+ml-hpc-hfcn19/0*36+ml-hpc-hfcn20/0*36+ml-hpc-hfcn21/0*36 exec_vnode=(ml-hpc-hfcn18:ncpus=36)+(ml-hpc-hfcn19:ncpus=36)+(ml-hpc-hfcn20:ncpus=36)+(ml-hpc-hfcn21:ncpus=36) Resource_List.dynalic=144 Resource_List.higher=1 Resource_List.mpiprocs=144 Resource_List.ncpus=144 Resource_List.nodect=4 Resource_List.place=free Resource_List.select=4:ncpus=36:mpiprocs=36:pas_applications_enabled=Dyna:platform=G6254-36c-384G Resource_List.software=LS-Dyna session=19695 end=1678091154 Exit_status=1 resources_used.cpupercent=3580 resources_used.cput=43:06:33 resources_used.mem=7199408kb resources_used.ncpus=144 resources_used.vmem=30189344kb resources_used.walltime=01:13:20 run_count=1
03/06/2023 16:25:58;S;124259.ml-hpc-master01;user=dailiangbo group=users2 project=_pbs_project_default jobname=Mona_TG1_CNCAP_SPRB_HyperStudy_001_h3d queue=workq ctime=1678091133 qtime=1678091133 etime=1678091154 start=1678091158 exec_host=ml-rtx6000-ser002/1 exec_vnode=(ml-rtx6000-ser002:ncpus=1) Resource_List.higher=1 Resource_List.hwlic=6000 Resource_List.hwlimit=1 Resource_List.mpiprocs=1 Resource_List.ncpus=1 Resource_List.nodect=1 Resource_List.place=free Resource_List.select=1:ncpus=1:mpiprocs=1:pas_applications_enabled=GUI Resource_List.software=Hvtrans resource_assigned.ncpus=1 
03/06/2023 16:31:38;E;124259.ml-hpc-master01;user=dailiangbo group=users2 project=_pbs_project_default jobname=Mona_TG1_CNCAP_SPRB_HyperStudy_001_h3d queue=workq ctime=1678091133 qtime=1678091133 etime=1678091154 start=1678091158 exec_host=ml-rtx6000-ser002/1 exec_vnode=(ml-rtx6000-ser002:ncpus=1) Resource_List.higher=1 Resource_List.hwlic=6000 Resource_List.hwlimit=1 Resource_List.mpiprocs=1 Resource_List.ncpus=1 Resource_List.nodect=1 Resource_List.place=free Resource_List.select=1:ncpus=1:mpiprocs=1:pas_applications_enabled=GUI Resource_List.software=Hvtrans session=215722 end=1678091498 Exit_status=0 resources_used.cpupercent=127 resources_used.cput=00:05:06 resources_used.mem=460396kb resources_used.ncpus=1 resources_used.vmem=1316352kb resources_used.walltime=00:04:03 run_count=1
03/06/2023 16:41:37;Q;124260.ml-hpc-master01;user=wangjinwang group=users2 project=_pbs_project_default jobname=Mona_PreEP2_CNCAP_MPDB-003g queue=routeq ctime=1678092097 qtime=1678092097 etime=0 Resource_List.dynalic=36 Resource_List.higher=1 Resource_List.matfemlic=36 Resource_List.mpiprocs=36 Resource_List.ncpus=36 Resource_List.nodect=1 Resource_List.place=free Resource_List.select=1:ncpus=36:mpiprocs=36:pas_applications_enabled=Dyna:platform=G6254-36c-384G Resource_List.software=LS-Dyna 
03/06/2023 16:41:37;Q;124260.ml-hpc-master01;user=wangjinwang group=users2 project=_pbs_project_default jobname=Mona_PreEP2_CNCAP_MPDB-003g queue=workq ctime=1678092097 qtime=1678092097 etime=1678092097 Resource_List.dynalic=36 Resource_List.higher=1 Resource_List.matfemlic=36 Resource_List.mpiprocs=36 Resource_List.ncpus=36 Resource_List.nodect=1 Resource_List.place=free Resource_List.select=1:ncpus=36:mpiprocs=36:pas_applications_enabled=Dyna:platform=G6254-36c-384G Resource_List.software=LS-Dyna 
03/06/2023 16:41:42;S;124260.ml-hpc-master01;user=wangjinwang group=users2 project=_pbs_project_default jobname=Mona_PreEP2_CNCAP_MPDB-003g queue=workq ctime=1678092097 qtime=1678092097 etime=1678092097 start=1678092102 exec_host=ml-hpc-hfcn14/0*36 exec_vnode=(ml-hpc-hfcn14:ncpus=36) Resource_List.dynalic=36 Resource_List.higher=1 Resource_List.matfemlic=36 Resource_List.mpiprocs=36 Resource_List.ncpus=36 Resource_List.nodect=1 Resource_List.place=free Resource_List.select=1:ncpus=36:mpiprocs=36:pas_applications_enabled=Dyna:platform=G6254-36c-384G Resource_List.software=LS-Dyna resource_assigned.ncpus=36 
03/06/2023 16:43:21;Q;124261.ml-hpc-master01;user=grapesli group=users2 project=_pbs_project_default jobname=66_TG1duibiao035_IPcase23_A_13_-6 queue=routeq ctime=1678092201 qtime=1678092201 etime=0 Resource_List.dynalic=48 Resource_List.higher=1 Resource_List.mpiprocs=48 Resource_List.ncpus=48 Resource_List.nodect=1 Resource_List.place=free Resource_List.select=1:ncpus=48:mpiprocs=48:pas_applications_enabled=Dyna:platform=G6254-36c-384G Resource_List.software=LS-Dyna 
03/06/2023 16:43:21;Q;124261.ml-hpc-master01;user=grapesli group=users2 project=_pbs_project_default jobname=66_TG1duibiao035_IPcase23_A_13_-6 queue=limitq ctime=1678092201 qtime=1678092201 etime=1678092201 Resource_List.dynalic=48 Resource_List.higher=1 Resource_List.mpiprocs=48 Resource_List.ncpus=48 Resource_List.nodect=1 Resource_List.place=free Resource_List.select=1:ncpus=48:mpiprocs=48:pas_applications_enabled=Dyna:platform=G6254-36c-384G Resource_List.software=LS-Dyna 
03/06/2023 16:44:16;Q;124262.ml-hpc-master01;user=grapesli group=users2 project=_pbs_project_default jobname=66_TG1duibiao035_IPcase23_A_12_-6 queue=routeq ctime=1678092256 qtime=1678092256 etime=0 Resource_List.dynalic=36 Resource_List.higher=1 Resource_List.mpiprocs=36 Resource_List.ncpus=36 Resource_List.nodect=1 Resource_List.place=free Resource_List.select=1:ncpus=36:mpiprocs=36:pas_applications_enabled=Dyna:platform=G6254-36c-384G Resource_List.software=LS-Dyna 
03/06/2023 16:44:16;Q;124262.ml-hpc-master01;user=grapesli group=users2 project=_pbs_project_default jobname=66_TG1duibiao035_IPcase23_A_12_-6 queue=limitq ctime=1678092256 qtime=1678092256 etime=1678092256 Resource_List.dynalic=36 Resource_List.higher=1 Resource_List.mpiprocs=36 Resource_List.ncpus=36 Resource_List.nodect=1 Resource_List.place=free Resource_List.select=1:ncpus=36:mpiprocs=36:pas_applications_enabled=Dyna:platform=G6254-36c-384G Resource_List.software=LS-Dyna 
03/06/2023 16:44:21;S;124262.ml-hpc-master01;user=grapesli group=users2 project=_pbs_project_default jobname=66_TG1duibiao035_IPcase23_A_12_-6 queue=limitq ctime=1678092256 qtime=1678092256 etime=1678092256 start=1678092261 exec_host=ml-hpc-hfcn15/0*36 exec_vnode=(ml-hpc-hfcn15:ncpus=36) Resource_List.dynalic=36 Resource_List.higher=1 Resource_List.mpiprocs=36 Resource_List.ncpus=36 Resource_List.nodect=1 Resource_List.place=free Resource_List.select=1:ncpus=36:mpiprocs=36:pas_applications_enabled=Dyna:platform=G6254-36c-384G Resource_List.software=LS-Dyna resource_assigned.ncpus=36 
03/06/2023 16:44:29;Q;124263.ml-hpc-master01;user=grapesli group=users2 project=_pbs_project_default jobname=66_TG1duibiao035_IPcase23_A_9_-2 queue=routeq ctime=1678092269 qtime=1678092269 etime=0 Resource_List.dynalic=36 Resource_List.higher=1 Resource_List.mpiprocs=36 Resource_List.ncpus=36 Resource_List.nodect=1 Resource_List.place=free Resource_List.select=1:ncpus=36:mpiprocs=36:pas_applications_enabled=Dyna:platform=G6254-36c-384G Resource_List.software=LS-Dyna 
03/06/2023 16:44:29;Q;124263.ml-hpc-master01;user=grapesli group=users2 project=_pbs_project_default jobname=66_TG1duibiao035_IPcase23_A_9_-2 queue=limitq ctime=1678092269 qtime=1678092269 etime=1678092269 Resource_List.dynalic=36 Resource_List.higher=1 Resource_List.mpiprocs=36 Resource_List.ncpus=36 Resource_List.nodect=1 Resource_List.place=free Resource_List.select=1:ncpus=36:mpiprocs=36:pas_applications_enabled=Dyna:platform=G6254-36c-384G Resource_List.software=LS-Dyna 
03/06/2023 16:44:34;S;124263.ml-hpc-master01;user=grapesli group=users2 project=_pbs_project_default jobname=66_TG1duibiao035_IPcase23_A_9_-2 queue=limitq ctime=1678092269 qtime=1678092269 etime=1678092269 start=1678092274 exec_host=ml-hpc-hfcn16/0*36 exec_vnode=(ml-hpc-hfcn16:ncpus=36) Resource_List.dynalic=36 Resource_List.higher=1 Resource_List.mpiprocs=36 Resource_List.ncpus=36 Resource_List.nodect=1 Resource_List.place=free Resource_List.select=1:ncpus=36:mpiprocs=36:pas_applications_enabled=Dyna:platform=G6254-36c-384G Resource_List.software=LS-Dyna resource_assigned.ncpus=36 
03/06/2023 16:44:42;Q;124264.ml-hpc-master01;user=grapesli group=users2 project=_pbs_project_default jobname=66_TG1duibiao035_IPcase23_A_9_5 queue=routeq ctime=1678092282 qtime=1678092282 etime=0 Resource_List.dynalic=36 Resource_List.higher=1 Resource_List.mpiprocs=36 Resource_List.ncpus=36 Resource_List.nodect=1 Resource_List.place=free Resource_List.select=1:ncpus=36:mpiprocs=36:pas_applications_enabled=Dyna:platform=G6254-36c-384G Resource_List.software=LS-Dyna 
03/06/2023 16:44:42;Q;124264.ml-hpc-master01;user=grapesli group=users2 project=_pbs_project_default jobname=66_TG1duibiao035_IPcase23_A_9_5 queue=limitq ctime=1678092282 qtime=1678092282 etime=1678092282 Resource_List.dynalic=36 Resource_List.higher=1 Resource_List.mpiprocs=36 Resource_List.ncpus=36 Resource_List.nodect=1 Resource_List.place=free Resource_List.select=1:ncpus=36:mpiprocs=36:pas_applications_enabled=Dyna:platform=G6254-36c-384G Resource_List.software=LS-Dyna 
03/06/2023 16:44:47;S;124264.ml-hpc-master01;user=grapesli group=users2 project=_pbs_project_default jobname=66_TG1duibiao035_IPcase23_A_9_5 queue=limitq ctime=1678092282 qtime=1678092282 etime=1678092282 start=1678092287 exec_host=ml-hpc-hfcn17/0*36 exec_vnode=(ml-hpc-hfcn17:ncpus=36) Resource_List.dynalic=36 Resource_List.higher=1 Resource_List.mpiprocs=36 Resource_List.ncpus=36 Resource_List.nodect=1 Resource_List.place=free Resource_List.select=1:ncpus=36:mpiprocs=36:pas_applications_enabled=Dyna:platform=G6254-36c-384G Resource_List.software=LS-Dyna resource_assigned.ncpus=36 
03/06/2023 16:44:53;Q;124265.ml-hpc-master01;user=grapesli group=users2 project=_pbs_project_default jobname=66_TG1duibiao035_IPcase23_A_8_5 queue=routeq ctime=1678092293 qtime=1678092293 etime=0 Resource_List.dynalic=36 Resource_List.higher=1 Resource_List.mpiprocs=36 Resource_List.ncpus=36 Resource_List.nodect=1 Resource_List.place=free Resource_List.select=1:ncpus=36:mpiprocs=36:pas_applications_enabled=Dyna:platform=G6254-36c-384G Resource_List.software=LS-Dyna 
03/06/2023 16:44:53;Q;124265.ml-hpc-master01;user=grapesli group=users2 project=_pbs_project_default jobname=66_TG1duibiao035_IPcase23_A_8_5 queue=limitq ctime=1678092293 qtime=1678092293 etime=1678092293 Resource_List.dynalic=36 Resource_List.higher=1 Resource_List.mpiprocs=36 Resource_List.ncpus=36 Resource_List.nodect=1 Resource_List.place=free Resource_List.select=1:ncpus=36:mpiprocs=36:pas_applications_enabled=Dyna:platform=G6254-36c-384G Resource_List.software=LS-Dyna 
03/06/2023 16:44:58;S;124265.ml-hpc-master01;user=grapesli group=users2 project=_pbs_project_default jobname=66_TG1duibiao035_IPcase23_A_8_5 queue=limitq ctime=1678092293 qtime=1678092293 etime=1678092293 start=1678092298 exec_host=ml-hpc-hfcn18/0*36 exec_vnode=(ml-hpc-hfcn18:ncpus=36) Resource_List.dynalic=36 Resource_List.higher=1 Resource_List.mpiprocs=36 Resource_List.ncpus=36 Resource_List.nodect=1 Resource_List.place=free Resource_List.select=1:ncpus=36:mpiprocs=36:pas_applications_enabled=Dyna:platform=G6254-36c-384G Resource_List.software=LS-Dyna resource_assigned.ncpus=36 
03/06/2023 16:45:27;Q;124266.ml-hpc-master01;user=grapesli group=users2 project=_pbs_project_default jobname=66_TG1duibiao035_IPcase23_A_13_-6 queue=routeq ctime=1678092327 qtime=1678092327 etime=0 Resource_List.dynalic=48 Resource_List.higher=1 Resource_List.mpiprocs=48 Resource_List.ncpus=48 Resource_List.nodect=1 Resource_List.place=free Resource_List.select=1:ncpus=48:mpiprocs=48:pas_applications_enabled=Dyna:platform=G6254-36c-384G Resource_List.software=LS-Dyna 
03/06/2023 16:45:27;Q;124266.ml-hpc-master01;user=grapesli group=users2 project=_pbs_project_default jobname=66_TG1duibiao035_IPcase23_A_13_-6 queue=limitq ctime=1678092327 qtime=1678092327 etime=1678092327 Resource_List.dynalic=48 Resource_List.higher=1 Resource_List.mpiprocs=48 Resource_List.ncpus=48 Resource_List.nodect=1 Resource_List.place=free Resource_List.select=1:ncpus=48:mpiprocs=48:pas_applications_enabled=Dyna:platform=G6254-36c-384G Resource_List.software=LS-Dyna 
03/06/2023 16:45:50;D;124266.ml-hpc-master01;requestor=grapesli@ml-hpc-master01
03/06/2023 16:46:00;D;124261.ml-hpc-master01;requestor=grapesli@ml-hpc-master01
03/06/2023 16:46:24;Q;124267.ml-hpc-master01;user=grapesli group=users2 project=_pbs_project_default jobname=66_TG1duibiao035_IPcase23_A_13_-6 queue=routeq ctime=1678092384 qtime=1678092384 etime=0 Resource_List.dynalic=36 Resource_List.higher=1 Resource_List.mpiprocs=36 Resource_List.ncpus=36 Resource_List.nodect=1 Resource_List.place=free Resource_List.select=1:ncpus=36:mpiprocs=36:pas_applications_enabled=Dyna:platform=G6254-36c-384G Resource_List.software=LS-Dyna 
03/06/2023 16:46:24;Q;124267.ml-hpc-master01;user=grapesli group=users2 project=_pbs_project_default jobname=66_TG1duibiao035_IPcase23_A_13_-6 queue=limitq ctime=1678092384 qtime=1678092384 etime=1678092384 Resource_List.dynalic=36 Resource_List.higher=1 Resource_List.mpiprocs=36 Resource_List.ncpus=36 Resource_List.nodect=1 Resource_List.place=free Resource_List.select=1:ncpus=36:mpiprocs=36:pas_applications_enabled=Dyna:platform=G6254-36c-384G Resource_List.software=LS-Dyna 
03/06/2023 16:46:32;D;124260.ml-hpc-master01;requestor=wangjinwang@ml-hpc-master01
03/06/2023 16:46:56;S;124267.ml-hpc-master01;user=grapesli group=users2 project=_pbs_project_default jobname=66_TG1duibiao035_IPcase23_A_13_-6 queue=limitq ctime=1678092384 qtime=1678092384 etime=1678092384 start=1678092416 exec_host=ml-hpc-hfcn19/0*36 exec_vnode=(ml-hpc-hfcn19:ncpus=36) Resource_List.dynalic=36 Resource_List.higher=1 Resource_List.mpiprocs=36 Resource_List.ncpus=36 Resource_List.nodect=1 Resource_List.place=free Resource_List.select=1:ncpus=36:mpiprocs=36:pas_applications_enabled=Dyna:platform=G6254-36c-384G Resource_List.software=LS-Dyna resource_assigned.ncpus=36 
03/06/2023 16:46:58;E;124260.ml-hpc-master01;user=wangjinwang group=users2 project=_pbs_project_default jobname=Mona_PreEP2_CNCAP_MPDB-003g queue=workq ctime=1678092097 qtime=1678092097 etime=1678092097 start=1678092102 exec_host=ml-hpc-hfcn14/0*36 exec_vnode=(ml-hpc-hfcn14:ncpus=36) Resource_List.dynalic=36 Resource_List.higher=1 Resource_List.matfemlic=36 Resource_List.mpiprocs=36 Resource_List.ncpus=36 Resource_List.nodect=1 Resource_List.place=free Resource_List.select=1:ncpus=36:mpiprocs=36:pas_applications_enabled=Dyna:platform=G6254-36c-384G Resource_List.software=LS-Dyna session=34340 end=1678092418 Exit_status=271 resources_used.cpupercent=3365 resources_used.cput=02:48:53 resources_used.mem=18959236kb resources_used.ncpus=36 resources_used.vmem=34482552kb resources_used.walltime=00:05:07 run_count=1
03/06/2023 16:47:00;Q;124268.ml-hpc-master01;user=wangjinwang group=users2 project=_pbs_project_default jobname=Mona_PreEP2_CNCAP_MPDB-004a queue=routeq ctime=1678092420 qtime=1678092420 etime=0 Resource_List.dynalic=48 Resource_List.higher=1 Resource_List.matfemlic=48 Resource_List.mpiprocs=48 Resource_List.ncpus=48 Resource_List.nodect=1 Resource_List.place=free Resource_List.select=1:ncpus=48:mpiprocs=48:pas_applications_enabled=Dyna:platform=P8260-48c-512G Resource_List.software=LS-Dyna 
03/06/2023 16:47:00;Q;124268.ml-hpc-master01;user=wangjinwang group=users2 project=_pbs_project_default jobname=Mona_PreEP2_CNCAP_MPDB-004a queue=workq ctime=1678092420 qtime=1678092420 etime=1678092420 Resource_List.dynalic=48 Resource_List.higher=1 Resource_List.matfemlic=48 Resource_List.mpiprocs=48 Resource_List.ncpus=48 Resource_List.nodect=1 Resource_List.place=free Resource_List.select=1:ncpus=48:mpiprocs=48:pas_applications_enabled=Dyna:platform=P8260-48c-512G Resource_List.software=LS-Dyna 
[...]
03/06/2023 23:00:00;L;license;floating license hour:102 day:102 month:102 max:102
03/06/2023 23:05:28;Q;124422.ml-hpc-master01;user=grapesli group=users2 project=_pbs_project_default jobname=81_ADULT65_A_10_-5_h3d queue=routeq ctime=1678115128 qtime=1678115128 etime=0 depend=afterany:124322.ml-hpc-master01@ml-hpc-master01 Resource_List.higher=1 Resource_List.hwlic=6000 Resource_List.hwlimit=1 Resource_List.mpiprocs=1 Resource_List.ncpus=1 Resource_List.nodect=1 Resource_List.place=free Resource_List.select=1:ncpus=1:mpiprocs=1:pas_applications_enabled=GUI Resource_List.software=Hvtrans 
03/06/2023 23:05:28;Q;124422.ml-hpc-master01;user=grapesli group=users2 project=_pbs_project_default jobname=81_ADULT65_A_10_-5_h3d queue=limitq ctime=1678115128 qtime=1678115128 etime=0 depend=afterany:124322.ml-hpc-master01@ml-hpc-master01 Resource_List.higher=1 Resource_List.hwlic=6000 Resource_List.hwlimit=1 Resource_List.mpiprocs=1 Resource_List.ncpus=1 Resource_List.nodect=1 Resource_List.place=free Resource_List.select=1:ncpus=1:mpiprocs=1:pas_applications_enabled=GUI Resource_List.software=Hvtrans 
03/06/2023 23:05:50;Q;124423.ml-hpc-master01;user=bilizhi group=users2 project=_pbs_project_default jobname=000_Main_C011 queue=routeq ctime=1678115150 qtime=1678115150 etime=0 Resource_List.dynalic=72 Resource_List.higher=1 Resource_List.mpiprocs=72 Resource_List.ncpus=72 Resource_List.nodect=2 Resource_List.place=free Resource_List.select=2:ncpus=36:mpiprocs=36:pas_applications_enabled=Dyna:platform=G6254-36c-384G Resource_List.software=LS-Dyna 
03/06/2023 23:05:50;Q;124423.ml-hpc-master01;user=bilizhi group=users2 project=_pbs_project_default jobname=000_Main_C011 queue=workq ctime=1678115150 qtime=1678115150 etime=1678115150 Resource_List.dynalic=72 Resource_List.higher=1 Resource_List.mpiprocs=72 Resource_List.ncpus=72 Resource_List.nodect=2 Resource_List.place=free Resource_List.select=2:ncpus=36:mpiprocs=36:pas_applications_enabled=Dyna:platform=G6254-36c-384G Resource_List.software=LS-Dyna 
03/06/2023 23:05:56;S;124423.ml-hpc-master01;user=bilizhi group=users2 project=_pbs_project_default jobname=000_Main_C011 queue=workq ctime=1678115150 qtime=1678115150 etime=1678115150 start=1678115156 exec_host=ml-hpc-hfcn01/0*36+ml-hpc-hfcn02/0*36 exec_vnode=(ml-hpc-hfcn01:ncpus=36)+(ml-hpc-hfcn02:ncpus=36) Resource_List.dynalic=72 Resource_List.higher=1 Resource_List.mpiprocs=72 Resource_List.ncpus=72 Resource_List.nodect=2 Resource_List.place=free Resource_List.select=2:ncpus=36:mpiprocs=36:pas_applications_enabled=Dyna:platform=G6254-36c-384G Resource_List.software=LS-Dyna resource_assigned.ncpus=72 
03/06/2023 23:06:19;E;124322.ml-hpc-master01;user=grapesli group=users2 project=_pbs_project_default jobname=81_ADULT65_A_10_-5 queue=limitq ctime=1678099441 qtime=1678099441 etime=1678099441 start=1678109627 exec_host=ml-hpc-cn15/0*36 exec_vnode=(ml-hpc-cn15:ncpus=36) Resource_List.dynalic=36 Resource_List.higher=1 Resource_List.mpiprocs=36 Resource_List.ncpus=36 Resource_List.nodect=1 Resource_List.place=free Resource_List.select=1:ncpus=36:mpiprocs=36:pas_applications_enabled=Dyna:platform=P8260-48c-512G Resource_List.software=LS-Dyna session=193024 end=1678115179 Exit_status=0 resources_used.cpupercent=3600 resources_used.cput=54:35:43 resources_used.mem=9785956kb resources_used.ncpus=36 resources_used.vmem=25918896kb resources_used.walltime=01:31:45 run_count=1
03/06/2023 23:06:21;Q;124424.ml-hpc-master01;user=bilizhi group=users2 project=_pbs_project_default jobname=000_Main_C011_h3d queue=routeq ctime=1678115181 qtime=1678115181 etime=0 depend=afterany:124423.ml-hpc-master01@ml-hpc-master01 Resource_List.higher=1 Resource_List.hwlic=6000 Resource_List.hwlimit=1 Resource_List.mpiprocs=1 Resource_List.ncpus=1 Resource_List.nodect=1 Resource_List.place=free Resource_List.select=1:ncpus=1:mpiprocs=1:pas_applications_enabled=GUI Resource_List.software=Hvtrans 
03/06/2023 23:06:21;Q;124424.ml-hpc-master01;user=bilizhi group=users2 project=_pbs_project_default jobname=000_Main_C011_h3d queue=workq ctime=1678115181 qtime=1678115181 etime=0 depend=afterany:124423.ml-hpc-master01@ml-hpc-master01 Resource_List.higher=1 Resource_List.hwlic=6000 Resource_List.hwlimit=1 Resource_List.mpiprocs=1 Resource_List.ncpus=1 Resource_List.nodect=1 Resource_List.place=free Resource_List.select=1:ncpus=1:mpiprocs=1:pas_applications_enabled=GUI Resource_List.software=Hvtrans 
03/06/2023 23:06:22;S;124422.ml-hpc-master01;user=grapesli group=users2 project=_pbs_project_default jobname=81_ADULT65_A_10_-5_h3d queue=limitq ctime=1678115128 qtime=1678115128 etime=1678115179 start=1678115182 exec_host=ml-rtx6000-ser002/1 exec_vnode=(ml-rtx6000-ser002:ncpus=1) Resource_List.higher=1 Resource_List.hwlic=6000 Resource_List.hwlimit=1 Resource_List.mpiprocs=1 Resource_List.ncpus=1 Resource_List.nodect=1 Resource_List.place=free Resource_List.select=1:ncpus=1:mpiprocs=1:pas_applications_enabled=GUI Resource_List.software=Hvtrans resource_assigned.ncpus=1 
03/06/2023 23:06:24;S;124332.ml-hpc-master01;user=grapesli group=users2 project=_pbs_project_default jobname=81_ADULT65_A_11_2 queue=limitq ctime=1678099460 qtime=1678099460 etime=1678099460 start=1678115184 exec_host=ml-hpc-cn15/0*36 exec_vnode=(ml-hpc-cn15:ncpus=36) Resource_List.dynalic=36 Resource_List.higher=1 Resource_List.mpiprocs=36 Resource_List.ncpus=36 Resource_List.nodect=1 Resource_List.place=free Resource_List.select=1:ncpus=36:mpiprocs=36:pas_applications_enabled=Dyna:platform=P8260-48c-512G Resource_List.software=LS-Dyna resource_assigned.ncpus=36 
03/06/2023 23:06:26;E;124423.ml-hpc-master01;user=bilizhi group=users2 project=_pbs_project_default jobname=000_Main_C011 queue=workq ctime=1678115150 qtime=1678115150 etime=1678115150 start=1678115156 exec_host=ml-hpc-hfcn01/0*36+ml-hpc-hfcn02/0*36 exec_vnode=(ml-hpc-hfcn01:ncpus=36)+(ml-hpc-hfcn02:ncpus=36) Resource_List.dynalic=72 Resource_List.higher=1 Resource_List.mpiprocs=72 Resource_List.ncpus=72 Resource_List.nodect=2 Resource_List.place=free Resource_List.select=2:ncpus=36:mpiprocs=36:pas_applications_enabled=Dyna:platform=G6254-36c-384G Resource_List.software=LS-Dyna session=125504 end=1678115186 Exit_status=3 resources_used.cpupercent=1827 resources_used.cput=00:11:55 resources_used.mem=2410928kb resources_used.ncpus=72 resources_used.vmem=28677376kb resources_used.walltime=00:00:29 run_count=1
03/06/2023 23:06:29;S;124424.ml-hpc-master01;user=bilizhi group=users2 project=_pbs_project_default jobname=000_Main_C011_h3d queue=workq ctime=1678115181 qtime=1678115181 etime=1678115186 start=1678115189 exec_host=ml-rtx6000-ser002/3 exec_vnode=(ml-rtx6000-ser002:ncpus=1) Resource_List.higher=1 Resource_List.hwlic=6000 Resource_List.hwlimit=1 Resource_List.mpiprocs=1 Resource_List.ncpus=1 Resource_List.nodect=1 Resource_List.place=free Resource_List.select=1:ncpus=1:mpiprocs=1:pas_applications_enabled=GUI Resource_List.software=Hvtrans resource_assigned.ncpus=1 
03/06/2023 23:07:33;Q;124425.ml-hpc-master01;user=grapesli group=users2 project=_pbs_project_default jobname=81_ADULT65_A_10_6_h3d queue=routeq ctime=1678115253 qtime=1678115253 etime=0 depend=afterany:124323.ml-hpc-master01@ml-hpc-master01 Resource_List.higher=1 Resource_List.hwlic=6000 Resource_List.hwlimit=1 Resource_List.mpiprocs=1 Resource_List.ncpus=1 Resource_List.nodect=1 Resource_List.place=free Resource_List.select=1:ncpus=1:mpiprocs=1:pas_applications_enabled=GUI Resource_List.software=Hvtrans 
03/06/2023 23:07:33;Q;124425.ml-hpc-master01;user=grapesli group=users2 project=_pbs_project_default jobname=81_ADULT65_A_10_6_h3d queue=limitq ctime=1678115253 qtime=1678115253 etime=0 depend=afterany:124323.ml-hpc-master01@ml-hpc-master01 Resource_List.higher=1 Resource_List.hwlic=6000 Resource_List.hwlimit=1 Resource_List.mpiprocs=1 Resource_List.ncpus=1 Resource_List.nodect=1 Resource_List.place=free Resource_List.select=1:ncpus=1:mpiprocs=1:pas_applications_enabled=GUI Resource_List.software=Hvtrans 
03/06/2023 23:08:05;E;124424.ml-hpc-master01;user=bilizhi group=users2 project=_pbs_project_default jobname=000_Main_C011_h3d queue=workq ctime=1678115181 qtime=1678115181 etime=1678115186 start=1678115189 exec_host=ml-rtx6000-ser002/3 exec_vnode=(ml-rtx6000-ser002:ncpus=1) Resource_List.higher=1 Resource_List.hwlic=6000 Resource_List.hwlimit=1 Resource_List.mpiprocs=1 Resource_List.ncpus=1 Resource_List.nodect=1 Resource_List.place=free Resource_List.select=1:ncpus=1:mpiprocs=1:pas_applications_enabled=GUI Resource_List.software=Hvtrans session=62011 end=1678115285 Exit_status=0 resources_used.cpupercent=0 resources_used.cput=00:00:00 resources_used.mem=0kb resources_used.ncpus=1 resources_used.vmem=0kb resources_used.walltime=00:00:01 run_count=1
03/06/2023 23:08:39;E;124323.ml-hpc-master01;user=grapesli group=users2 project=_pbs_project_default jobname=81_ADULT65_A_10_6 queue=limitq ctime=1678099445 qtime=1678099445 etime=1678099445 start=1678110202 exec_host=ml-hpc-cn18/0*36 exec_vnode=(ml-hpc-cn18:ncpus=36) Resource_List.dynalic=36 Resource_List.higher=1 Resource_List.mpiprocs=36 Resource_List.ncpus=36 Resource_List.nodect=1 Resource_List.place=free Resource_List.select=1:ncpus=36:mpiprocs=36:pas_applications_enabled=Dyna:platform=P8260-48c-512G Resource_List.software=LS-Dyna session=39179 end=1678115319 Exit_status=184 resources_used.cpupercent=3599 resources_used.cput=50:08:05 resources_used.mem=9787996kb resources_used.ncpus=36 resources_used.vmem=25977148kb resources_used.walltime=01:24:14 run_count=1
03/06/2023 23:08:43;S;124425.ml-hpc-master01;user=grapesli group=users2 project=_pbs_project_default jobname=81_ADULT65_A_10_6_h3d queue=limitq ctime=1678115253 qtime=1678115253 etime=1678115319 start=1678115323 exec_host=ml-rtx6000-ser002/3 exec_vnode=(ml-rtx6000-ser002:ncpus=1) Resource_List.higher=1 Resource_List.hwlic=6000 Resource_List.hwlimit=1 Resource_List.mpiprocs=1 Resource_List.ncpus=1 Resource_List.nodect=1 Resource_List.place=free Resource_List.select=1:ncpus=1:mpiprocs=1:pas_applications_enabled=GUI Resource_List.software=Hvtrans resource_assigned.ncpus=1 
03/06/2023 23:08:44;S;124333.ml-hpc-master01;user=grapesli group=users2 project=_pbs_project_default jobname=81_ADULT65_A_11_-2 queue=limitq ctime=1678099461 qtime=1678099461 etime=1678099461 start=1678115324 exec_host=ml-hpc-cn18/0*36 exec_vnode=(ml-hpc-cn18:ncpus=36) Resource_List.dynalic=36 Resource_List.higher=1 Resource_List.mpiprocs=36 Resource_List.ncpus=36 Resource_List.nodect=1 Resource_List.place=free Resource_List.select=1:ncpus=36:mpiprocs=36:pas_applications_enabled=Dyna:platform=P8260-48c-512G Resource_List.software=LS-Dyna resource_assigned.ncpus=36 
03/06/2023 23:10:24;E;124422.ml-hpc-master01;user=grapesli group=users2 project=_pbs_project_default jobname=81_ADULT65_A_10_-5_h3d queue=limitq ctime=1678115128 qtime=1678115128 etime=1678115179 start=1678115182 exec_host=ml-rtx6000-ser002/1 exec_vnode=(ml-rtx6000-ser002:ncpus=1) Resource_List.higher=1 Resource_List.hwlic=6000 Resource_List.hwlimit=1 Resource_List.mpiprocs=1 Resource_List.ncpus=1 Resource_List.nodect=1 Resource_List.place=free Resource_List.select=1:ncpus=1:mpiprocs=1:pas_applications_enabled=GUI Resource_List.software=Hvtrans session=61863 end=1678115424 Exit_status=0 resources_used.cpupercent=118 resources_used.cput=00:03:10 resources_used.mem=342372kb resources_used.ncpus=1 resources_used.vmem=1187924kb resources_used.walltime=00:02:27 run_count=1
03/06/2023 23:11:02;Q;124426.ml-hpc-master01;user=bilizhi group=users2 project=_pbs_project_default jobname=000_Main_C011 queue=routeq ctime=1678115462 qtime=1678115462 etime=0 Resource_List.dynalic=72 Resource_List.higher=1 Resource_List.mpiprocs=72 Resource_List.ncpus=72 Resource_List.nodect=2 Resource_List.place=free Resource_List.select=2:ncpus=36:mpiprocs=36:pas_applications_enabled=Dyna:platform=G6254-36c-384G Resource_List.software=LS-Dyna 
03/06/2023 23:11:02;Q;124426.ml-hpc-master01;user=bilizhi group=users2 project=_pbs_project_default jobname=000_Main_C011 queue=workq ctime=1678115462 qtime=1678115462 etime=1678115462 Resource_List.dynalic=72 Resource_List.higher=1 Resource_List.mpiprocs=72 Resource_List.ncpus=72 Resource_List.nodect=2 Resource_List.place=free Resource_List.select=2:ncpus=36:mpiprocs=36:pas_applications_enabled=Dyna:platform=G6254-36c-384G Resource_List.software=LS-Dyna 
03/06/2023 23:11:08;S;124426.ml-hpc-master01;user=bilizhi group=users2 project=_pbs_project_default jobname=000_Main_C011 queue=workq ctime=1678115462 qtime=1678115462 etime=1678115462 start=1678115468 exec_host=ml-hpc-hfcn01/0*36+ml-hpc-hfcn02/0*36 exec_vnode=(ml-hpc-hfcn01:ncpus=36)+(ml-hpc-hfcn02:ncpus=36) Resource_List.dynalic=72 Resource_List.higher=1 Resource_List.mpiprocs=72 Resource_List.ncpus=72 Resource_List.nodect=2 Resource_List.place=free Resource_List.select=2:ncpus=36:mpiprocs=36:pas_applications_enabled=Dyna:platform=G6254-36c-384G Resource_List.software=LS-Dyna resource_assigned.ncpus=72 
03/06/2023 23:12:33;E;124425.ml-hpc-master01;user=grapesli group=users2 project=_pbs_project_default jobname=81_ADULT65_A_10_6_h3d queue=limitq ctime=1678115253 qtime=1678115253 etime=1678115319 start=1678115323 exec_host=ml-rtx6000-ser002/3 exec_vnode=(ml-rtx6000-ser002:ncpus=1) Resource_List.higher=1 Resource_List.hwlic=6000 Resource_List.hwlimit=1 Resource_List.mpiprocs=1 Resource_List.ncpus=1 Resource_List.nodect=1 Resource_List.place=free Resource_List.select=1:ncpus=1:mpiprocs=1:pas_applications_enabled=GUI Resource_List.software=Hvtrans session=69147 end=1678115553 Exit_status=0 resources_used.cpupercent=116 resources_used.cput=00:02:55 resources_used.mem=316156kb resources_used.ncpus=1 resources_used.vmem=1160784kb resources_used.walltime=00:02:15 run_count=1
03/06/2023 23:16:36;Q;124427.ml-hpc-master01;user=grapesli group=users2 project=_pbs_project_default jobname=81_ADULT65_A_10_-6_h3d queue=routeq ctime=1678115796 qtime=1678115796 etime=0 depend=afterany:124324.ml-hpc-master01@ml-hpc-master01 Resource_List.higher=1 Resource_List.hwlic=6000 Resource_List.hwlimit=1 Resource_List.mpiprocs=1 Resource_List.ncpus=1 Resource_List.nodect=1 Resource_List.place=free Resource_List.select=1:ncpus=1:mpiprocs=1:pas_applications_enabled=GUI Resource_List.software=Hvtrans 
03/06/2023 23:16:36;Q;124427.ml-hpc-master01;user=grapesli group=users2 project=_pbs_project_default jobname=81_ADULT65_A_10_-6_h3d queue=limitq ctime=1678115796 qtime=1678115796 etime=0 depend=afterany:124324.ml-hpc-master01@ml-hpc-master01 Resource_List.higher=1 Resource_List.hwlic=6000 Resource_List.hwlimit=1 Resource_List.mpiprocs=1 Resource_List.ncpus=1 Resource_List.nodect=1 Resource_List.place=free Resource_List.select=1:ncpus=1:mpiprocs=1:pas_applications_enabled=GUI Resource_List.software=Hvtrans 
03/06/2023 23:17:24;E;124324.ml-hpc-master01;user=grapesli group=users2 project=_pbs_project_default jobname=81_ADULT65_A_10_-6 queue=limitq ctime=1678099446 qtime=1678099446 etime=1678099446 start=1678110269 exec_host=ml-hpc-cn56/0*36 exec_vnode=(ml-hpc-cn56:ncpus=36) Resource_List.dynalic=36 Resource_List.higher=1 Resource_List.mpiprocs=36 Resource_List.ncpus=36 Resource_List.nodect=1 Resource_List.place=free Resource_List.select=1:ncpus=36:mpiprocs=36:pas_applications_enabled=Dyna:platform=P8260-48c-512G Resource_List.software=LS-Dyna session=88520 end=1678115844 Exit_status=0 resources_used.cpupercent=3600 resources_used.cput=54:50:44 resources_used.mem=9783544kb resources_used.ncpus=36 resources_used.vmem=25928300kb resources_used.walltime=01:32:11 run_count=1
03/06/2023 23:17:28;S;124427.ml-hpc-master01;user=grapesli group=users2 project=_pbs_project_default jobname=81_ADULT65_A_10_-6_h3d queue=limitq ctime=1678115796 qtime=1678115796 etime=1678115844 start=1678115848 exec_host=ml-rtx6000-ser002/1 exec_vnode=(ml-rtx6000-ser002:ncpus=1) Resource_List.higher=1 Resource_List.hwlic=6000 Resource_List.hwlimit=1 Resource_List.mpiprocs=1 Resource_List.ncpus=1 Resource_List.nodect=1 Resource_List.place=free Resource_List.select=1:ncpus=1:mpiprocs=1:pas_applications_enabled=GUI Resource_List.software=Hvtrans resource_assigned.ncpus=1 
03/06/2023 23:17:29;S;124334.ml-hpc-master01;user=grapesli group=users2 project=_pbs_project_default jobname=81_ADULT65_A_11_3 queue=limitq ctime=1678099462 qtime=1678099462 etime=1678099462 start=1678115849 exec_host=ml-hpc-cn56/0*36 exec_vnode=(ml-hpc-cn56:ncpus=36) Resource_List.dynalic=36 Resource_List.higher=1 Resource_List.mpiprocs=36 Resource_List.ncpus=36 Resource_List.nodect=1 Resource_List.place=free Resource_List.select=1:ncpus=36:mpiprocs=36:pas_applications_enabled=Dyna:platform=P8260-48c-512G Resource_List.software=LS-Dyna resource_assigned.ncpus=36 
03/06/2023 23:21:29;E;124427.ml-hpc-master01;user=grapesli group=users2 project=_pbs_project_default jobname=81_ADULT65_A_10_-6_h3d queue=limitq ctime=1678115796 qtime=1678115796 etime=1678115844 start=1678115848 exec_host=ml-rtx6000-ser002/1 exec_vnode=(ml-rtx6000-ser002:ncpus=1) Resource_List.higher=1 Resource_List.hwlic=6000 Resource_List.hwlimit=1 Resource_List.mpiprocs=1 Resource_List.ncpus=1 Resource_List.nodect=1 Resource_List.place=free Resource_List.select=1:ncpus=1:mpiprocs=1:pas_applications_enabled=GUI Resource_List.software=Hvtrans session=95810 end=1678116089 Exit_status=0 resources_used.cpupercent=118 resources_used.cput=00:02:53 resources_used.mem=299900kb resources_used.ncpus=1 resources_used.vmem=1145412kb resources_used.walltime=00:02:26 run_count=1
03/06/2023 23:59:31;Q;124428.ml-hpc-master01;user=grapesli group=users2 project=_pbs_project_default jobname=81_ADULT65_A_11_1_h3d queue=routeq ctime=1678118371 qtime=1678118371 etime=0 depend=afterany:124330.ml-hpc-master01@ml-hpc-master01 Resource_List.higher=1 Resource_List.hwlic=6000 Resource_List.hwlimit=1 Resource_List.mpiprocs=1 Resource_List.ncpus=1 Resource_List.nodect=1 Resource_List.place=free Resource_List.select=1:ncpus=1:mpiprocs=1:pas_applications_enabled=GUI Resource_List.software=Hvtrans 
03/06/2023 23:59:31;Q;124428.ml-hpc-master01;user=grapesli group=users2 project=_pbs_project_default jobname=81_ADULT65_A_11_1_h3d queue=limitq ctime=1678118371 qtime=1678118371 etime=0 depend=afterany:124330.ml-hpc-master01@ml-hpc-master01 Resource_List.higher=1 Resource_List.hwlic=6000 Resource_List.hwlimit=1 Resource_List.mpiprocs=1 Resource_List.ncpus=1 Resource_List.nodect=1 Resource_List.place=free Resource_List.select=1:ncpus=1:mpiprocs=1:pas_applications_enabled=GUI Resource_List.software=Hvtrans 
03/06/2023 23:59:57;Q;124429.ml-hpc-master01;user=grapesli group=users2 project=_pbs_project_default jobname=81_ADULT65_A_11_0_h3d queue=routeq ctime=1678118397 qtime=1678118397 etime=0 depend=afterany:124329.ml-hpc-master01@ml-hpc-master01 Resource_List.higher=1 Resource_List.hwlic=6000 Resource_List.hwlimit=1 Resource_List.mpiprocs=1 Resource_List.ncpus=1 Resource_List.nodect=1 Resource_List.place=free Resource_List.select=1:ncpus=1:mpiprocs=1:pas_applications_enabled=GUI Resource_List.software=Hvtrans 
03/06/2023 23:59:57;Q;124429.ml-hpc-master01;user=grapesli group=users2 project=_pbs_project_default jobname=81_ADULT65_A_11_0_h3d queue=limitq ctime=1678118397 qtime=1678118397 etime=0 depend=afterany:124329.ml-hpc-master01@ml-hpc-master01 Resource_List.higher=1 Resource_List.hwlic=6000 Resource_List.hwlimit=1 Resource_List.mpiprocs=1 Resource_List.ncpus=1 Resource_List.nodect=1 Resource_List.place=free Resource_List.select=1:ncpus=1:mpiprocs=1:pas_applications_enabled=GUI Resource_List.software=Hvtrans 
